<?xml version="1.0" encoding="UTF-8"?>

<!-- generated on 2025-07-31 15:41:28 by Eclipse SUMO netedit Version 1.20.0
<configuration xmlns:xsi="http://www.w3.org/2001/XMLSchema-instance" xsi:noNamespaceSchemaLocation="http://sumo.dlr.de/xsd/neteditConfiguration.xsd">

    <input>
        <sumo-net-file value="D:\GoogleChromeDownload\vs_code_file\vs_code_python\毕业设计\sumoTSC\traffic_simulation\maps\new_yizhuang\new_yizhuang.net.xml"/>
    </input>

    <output>
        <output-file value="D:\GoogleChromeDownload\vs_code_file\vs_code_python\毕业设计\sumoTSC\traffic_simulation\maps\new_yizhuang\new_yizhuang.net.xml"/>
        <output.street-names value="true"/>
    </output>

    <processing>
        <geometry.min-radius.fix.railways value="false"/>
        <geometry.max-grade.fix value="false"/>
        <offset.disable-normalization value="true"/>
        <lefthand value="0"/>
    </processing>

    <junctions>
        <no-turnarounds value="true"/>
        <junctions.corner-detail value="5"/>
        <junctions.limit-turn-speed value="5.50"/>
        <rectangular-lane-cut value="0"/>
    </junctions>

    <pedestrian>
        <walkingareas value="0"/>
    </pedestrian>

</configuration>
-->

<net version="1.20" junctionCornerDetail="5" limitTurnSpeed="5.50" xmlns:xsi="http://www.w3.org/2001/XMLSchema-instance" xsi:noNamespaceSchemaLocation="http://sumo.dlr.de/xsd/net_file.xsd">

    <location netOffset="-452046.70,-4400376.70" convBoundary="628.97,218.99,9455.80,7693.46" origBoundary="116.440111,39.752385,116.550523,39.827785" projParameter="+proj=utm +zone=50 +ellps=WGS84 +datum=WGS84 +units=m +no_defs"/>

    <type id="highway.primary" priority="12" numLanes="2" speed="27.78" disallow="tram rail_urban rail rail_electric rail_fast ship container cable_car subway aircraft wheelchair scooter drone" oneway="0"/>
    <type id="highway.residential" priority="3" numLanes="1" speed="13.89" disallow="tram rail_urban rail rail_electric rail_fast ship container cable_car subway aircraft wheelchair scooter drone" oneway="0"/>
    <type id="highway.secondary" priority="11" numLanes="1" speed="27.78" disallow="tram rail_urban rail rail_electric rail_fast ship container cable_car subway aircraft wheelchair scooter drone" oneway="0"/>
    <type id="highway.tertiary" priority="10" numLanes="1" speed="22.22" disallow="tram rail_urban rail rail_electric rail_fast ship container cable_car subway aircraft wheelchair scooter drone" oneway="0"/>
    <type id="highway.unclassified" priority="4" numLanes="1" speed="13.89" disallow="tram rail_urban rail rail_electric rail_fast ship container cable_car subway aircraft wheelchair scooter drone" oneway="0"/>

    <edge id=":1_0" function="internal">
        <lane id=":1_0_0" index="0" disallow="tram rail_urban rail rail_electric rail_fast ship container cable_car subway aircraft wheelchair scooter drone" speed="22.22" length="19.33" shape="7006.23,7486.74 7003.86,7491.96 7002.33,7495.59 7001.04,7499.30 6999.37,7504.78"/>
    </edge>
    <edge id=":1_1" function="internal">
        <lane id=":1_1_0" index="0" disallow="tram rail_urban rail rail_electric rail_fast ship container cable_car subway aircraft wheelchair scooter drone" speed="9.19" length="19.68" shape="7003.32,7485.41 7000.39,7489.98 6996.72,7492.44 6992.32,7492.80 6987.18,7491.05"/>
    </edge>
    <edge id=":1_2" function="internal">
        <lane id=":1_2_0" index="0" disallow="tram rail_urban rail rail_electric rail_fast ship container cable_car subway aircraft wheelchair scooter drone" speed="3.65" length="4.67" shape="7003.32,7485.41 7002.09,7486.17 7001.20,7486.20 7000.64,7485.51 7000.41,7484.09"/>
    </edge>
    <edge id=":1_3" function="internal">
        <lane id=":1_3_0" index="0" disallow="tram rail_urban rail rail_electric rail_fast ship container cable_car subway aircraft wheelchair scooter drone" speed="6.41" length="9.04" shape="6990.09,7485.34 6992.45,7486.15 6994.47,7485.98 6996.15,7484.85 6997.50,7482.76"/>
    </edge>
    <edge id=":1_4" function="internal">
        <lane id=":1_4_0" index="0" disallow="tram rail_urban rail rail_electric rail_fast ship container cable_car subway aircraft wheelchair scooter drone" speed="9.90" length="19.18" shape="6988.64,7488.19 6993.13,7491.22 6995.91,7494.84 6996.96,7499.06 6996.30,7503.87"/>
    </edge>
    <edge id=":1_5" function="internal">
        <lane id=":1_5_0" index="0" disallow="tram rail_urban rail rail_electric rail_fast ship container cable_car subway aircraft wheelchair scooter drone" speed="3.65" length="4.67" shape="6988.64,7488.19 6989.34,7489.45 6989.34,7490.35 6988.62,7490.88 6987.18,7491.05"/>
    </edge>
    <edge id=":1_6" function="internal">
        <lane id=":1_6_0" index="0" disallow="tram rail_urban rail rail_electric rail_fast ship container cable_car subway aircraft wheelchair scooter drone" speed="7.35" length="10.18" shape="6990.17,7502.04 6990.46,7499.62 6989.82,7497.45 6988.24,7495.54 6985.73,7493.90"/>
    </edge>
    <edge id=":1_7" function="internal">
        <lane id=":1_7_0" index="0" disallow="tram rail_urban rail rail_electric rail_fast ship container cable_car subway aircraft wheelchair scooter drone" speed="22.22" length="20.44" shape="6990.17,7502.04 6991.93,7496.27 6993.35,7492.22 6995.00,7488.26 6997.50,7482.76"/>
        <lane id=":1_7_1" index="1" disallow="tram rail_urban rail rail_electric rail_fast ship container cable_car subway aircraft wheelchair scooter drone" speed="22.22" length="20.44" shape="6993.23,7502.96 6994.97,7497.24 6996.33,7493.34 6997.94,7489.52 7000.41,7484.09"/>
    </edge>
    <edge id=":1_9" function="internal">
        <lane id=":1_9_0" index="0" disallow="tram rail_urban rail rail_electric rail_fast ship container cable_car subway aircraft wheelchair scooter drone" speed="3.65" length="4.67" shape="6993.23,7502.96 6994.34,7502.03 6995.22,7501.88 6995.88,7502.49 6996.30,7503.87"/>
    </edge>
    <edge id=":10_0" function="internal">
        <lane id=":10_0_0" index="0" disallow="tram rail_urban rail rail_electric rail_fast ship container cable_car subway aircraft wheelchair scooter drone" speed="6.86" length="9.78" shape="7335.37,6492.27 7333.08,6491.32 7330.93,6491.39 7328.91,6492.49 7327.01,6494.62"/>
    </edge>
    <edge id=":10_1" function="internal">
        <lane id=":10_1_0" index="0" disallow="tram rail_urban rail rail_electric rail_fast ship container cable_car subway aircraft wheelchair scooter drone" speed="27.78" length="29.94" shape="7335.37,6492.27 7310.09,6476.22"/>
    </edge>
    <edge id=":10_2" function="internal">
        <lane id=":10_2_0" index="0" disallow="tram rail_urban rail rail_electric rail_fast ship container cable_car subway aircraft wheelchair scooter drone" speed="11.54" length="29.91" shape="7337.07,6489.56 7332.01,6484.47 7328.56,6477.28 7327.36,6469.55 7329.03,6462.81"/>
    </edge>
    <edge id=":10_3" function="internal">
        <lane id=":10_3_0" index="0" disallow="tram rail_urban rail rail_electric rail_fast ship container cable_car subway aircraft wheelchair scooter drone" speed="5.53" length="13.68" shape="7337.07,6489.56 7335.34,6485.71 7335.59,6483.10 7337.83,6481.74 7342.05,6481.62"/>
    </edge>
    <edge id=":10_4" function="internal">
        <lane id=":10_4_0" index="0" disallow="tram rail_urban rail rail_electric rail_fast ship container cable_car subway aircraft wheelchair scooter drone" speed="6.81" length="9.69" shape="7342.21,6470.46 7341.12,6473.06 7341.02,6475.33 7341.89,6477.28 7343.75,6478.91"/>
    </edge>
    <edge id=":10_5" function="internal">
        <lane id=":10_5_0" index="0" disallow="tram rail_urban rail rail_electric rail_fast ship container cable_car subway aircraft wheelchair scooter drone" speed="27.78" length="28.54" shape="7342.21,6470.46 7327.01,6494.62"/>
    </edge>
    <edge id=":10_6" function="internal">
        <lane id=":10_6_0" index="0" disallow="tram rail_urban rail rail_electric rail_fast ship container cable_car subway aircraft wheelchair scooter drone" speed="11.23" length="30.19" shape="7339.44,6468.86 7334.31,6473.52 7326.78,6475.90 7318.67,6475.93 7311.83,6473.54"/>
    </edge>
    <edge id=":10_7" function="internal">
        <lane id=":10_7_0" index="0" disallow="tram rail_urban rail rail_electric rail_fast ship container cable_car subway aircraft wheelchair scooter drone" speed="6.17" length="17.58" shape="7339.44,6468.86 7334.57,6471.25 7331.21,6471.04 7329.37,6468.23 7329.03,6462.81"/>
    </edge>
    <edge id=":10_8" function="internal">
        <lane id=":10_8_0" index="0" disallow="tram rail_urban rail rail_electric rail_fast ship container cable_car subway aircraft wheelchair scooter drone" speed="6.43" length="9.05" shape="7318.62,6463.07 7320.90,6464.09 7322.93,6464.12 7324.72,6463.16 7326.26,6461.21"/>
    </edge>
    <edge id=":10_9" function="internal">
        <lane id=":10_9_0" index="0" disallow="tram rail_urban rail rail_electric rail_fast ship container cable_car subway aircraft wheelchair scooter drone" speed="27.78" length="29.70" shape="7318.62,6463.07 7343.75,6478.91"/>
    </edge>
    <edge id=":10_10" function="internal">
        <lane id=":10_10_0" index="0" disallow="tram rail_urban rail rail_electric rail_fast ship container cable_car subway aircraft wheelchair scooter drone" speed="11.28" length="30.21" shape="7316.88,6465.76 7321.93,6470.96 7325.35,6478.31 7326.41,6486.15 7324.39,6492.79"/>
    </edge>
    <edge id=":10_11" function="internal">
        <lane id=":10_11_0" index="0" disallow="tram rail_urban rail rail_electric rail_fast ship container cable_car subway aircraft wheelchair scooter drone" speed="5.51" length="13.54" shape="7316.88,6465.76 7318.53,6469.59 7318.25,6472.17 7316.01,6473.48 7311.83,6473.54"/>
    </edge>
    <edge id=":10_12" function="internal">
        <lane id=":10_12_0" index="0" disallow="tram rail_urban rail rail_electric rail_fast ship container cable_car subway aircraft wheelchair scooter drone" speed="6.84" length="9.78" shape="7312.53,6484.53 7313.46,6482.19 7313.37,6480.03 7312.24,6478.04 7310.09,6476.22"/>
    </edge>
    <edge id=":10_13" function="internal">
        <lane id=":10_13_0" index="0" disallow="tram rail_urban rail rail_electric rail_fast ship container cable_car subway aircraft wheelchair scooter drone" speed="27.78" length="27.07" shape="7312.53,6484.53 7326.26,6461.21"/>
    </edge>
    <edge id=":10_14" function="internal">
        <lane id=":10_14_0" index="0" disallow="tram rail_urban rail rail_electric rail_fast ship container cable_car subway aircraft wheelchair scooter drone" speed="11.23" length="29.45" shape="7315.16,6486.37 7320.22,6481.74 7327.49,6479.36 7335.31,6479.29 7342.05,6481.62"/>
    </edge>
    <edge id=":10_15" function="internal">
        <lane id=":10_15_0" index="0" disallow="tram rail_urban rail rail_electric rail_fast ship container cable_car subway aircraft wheelchair scooter drone" speed="6.04" length="16.42" shape="7315.16,6486.37 7319.88,6484.51 7322.98,6484.96 7324.49,6487.72 7324.39,6492.79"/>
    </edge>
    <edge id=":100_0" function="internal">
        <lane id=":100_0_0" index="0" disallow="tram rail_urban rail rail_electric rail_fast ship container cable_car subway aircraft wheelchair scooter drone" speed="6.49" length="9.03" shape="4700.87,4882.36 4698.61,4881.35 4696.57,4881.31 4694.75,4882.23 4693.16,4884.13"/>
    </edge>
    <edge id=":100_1" function="internal">
        <lane id=":100_1_0" index="0" disallow="tram rail_urban rail rail_electric rail_fast ship container cable_car subway aircraft wheelchair scooter drone" speed="14.45" length="18.01" shape="4702.57,4879.65 4698.02,4876.85 4694.97,4874.56 4692.86,4871.57 4691.16,4866.66"/>
    </edge>
    <edge id=":100_2" function="internal">
        <lane id=":100_2_0" index="0" disallow="tram rail_urban rail rail_electric rail_fast ship container cable_car subway aircraft wheelchair scooter drone" speed="12.41" length="13.18" shape="4697.35,4865.00 4698.64,4868.55 4700.27,4870.65 4702.61,4872.23 4705.99,4874.24"/>
    </edge>
    <edge id=":100_3" function="internal">
        <lane id=":100_3_0" index="0" disallow="tram rail_urban rail rail_electric rail_fast ship container cable_car subway aircraft wheelchair scooter drone" speed="13.32" length="17.50" shape="4694.26,4865.83 4694.75,4869.62 4694.28,4873.64 4692.85,4877.92 4690.44,4882.44"/>
    </edge>
    <edge id=":100_4" function="internal">
        <lane id=":100_4_0" index="0" disallow="tram rail_urban rail rail_electric rail_fast ship container cable_car subway aircraft wheelchair scooter drone" speed="11.19" length="12.25" shape="4684.94,4879.02 4686.77,4875.68 4687.90,4872.64 4688.33,4869.91 4688.07,4867.49"/>
    </edge>
    <edge id=":100_5" function="internal">
        <lane id=":100_5_0" index="0" disallow="tram rail_urban rail rail_electric rail_fast ship container cable_car subway aircraft wheelchair scooter drone" speed="9.27" length="19.46" shape="4687.65,4880.71 4691.08,4876.64 4695.00,4874.65 4699.40,4874.75 4704.28,4876.94"/>
    </edge>
    <edge id=":101_0" function="internal">
        <lane id=":101_0_0" index="0" disallow="tram rail_urban rail rail_electric rail_fast ship container cable_car subway aircraft wheelchair scooter drone" speed="11.58" length="12.38" shape="4915.26,4525.42 4911.89,4523.52 4908.83,4522.32 4906.09,4521.80 4903.67,4521.96"/>
    </edge>
    <edge id=":101_1" function="internal">
        <lane id=":101_1_0" index="0" disallow="tram rail_urban rail rail_electric rail_fast ship container cable_car subway aircraft wheelchair scooter drone" speed="9.26" length="19.29" shape="4916.98,4522.72 4912.96,4519.29 4911.00,4515.39 4911.09,4511.03 4913.24,4506.20"/>
    </edge>
    <edge id=":101_2" function="internal">
        <lane id=":101_2_0" index="0" disallow="tram rail_urban rail rail_electric rail_fast ship container cable_car subway aircraft wheelchair scooter drone" speed="6.51" length="9.00" shape="4918.66,4509.60 4917.66,4511.86 4917.62,4513.89 4918.53,4515.71 4920.41,4517.31"/>
    </edge>
    <edge id=":101_3" function="internal">
        <lane id=":101_3_0" index="0" disallow="tram rail_urban rail rail_electric rail_fast ship container cable_car subway aircraft wheelchair scooter drone" speed="13.65" length="17.40" shape="4915.95,4507.90 4912.94,4512.09 4909.77,4515.30 4906.45,4517.56 4902.96,4518.84"/>
    </edge>
    <edge id=":101_4" function="internal">
        <lane id=":101_4_0" index="0" disallow="tram rail_urban rail rail_electric rail_fast ship container cable_car subway aircraft wheelchair scooter drone" speed="11.57" length="12.37" shape="4901.55,4512.60 4903.81,4511.71 4906.07,4510.06 4908.31,4507.66 4910.53,4504.50"/>
    </edge>
    <edge id=":101_5" function="internal">
        <lane id=":101_5_0" index="0" disallow="tram rail_urban rail rail_electric rail_fast ship container cable_car subway aircraft wheelchair scooter drone" speed="13.66" length="17.40" shape="4902.26,4515.72 4905.96,4515.39 4909.93,4515.99 4914.18,4517.53 4918.69,4520.02"/>
    </edge>
    <edge id=":102_0" function="internal">
        <lane id=":102_0_0" index="0" disallow="tram rail_urban rail rail_electric rail_fast ship container cable_car subway aircraft wheelchair scooter drone" speed="6.43" length="9.03" shape="5135.90,4173.53 5133.63,4172.52 5131.60,4172.49 5129.81,4173.45 5128.27,4175.40"/>
    </edge>
    <edge id=":102_1" function="internal">
        <lane id=":102_1_0" index="0" disallow="tram rail_urban rail rail_electric rail_fast ship container cable_car subway aircraft wheelchair scooter drone" speed="27.78" length="21.31" shape="5135.90,4173.53 5117.87,4162.19"/>
        <lane id=":102_1_1" index="1" disallow="tram rail_urban rail rail_electric rail_fast ship container cable_car subway aircraft wheelchair scooter drone" speed="27.78" length="21.31" shape="5137.61,4170.82 5119.57,4159.48"/>
        <lane id=":102_1_2" index="2" disallow="tram rail_urban rail rail_electric rail_fast ship container cable_car subway aircraft wheelchair scooter drone" speed="27.78" length="21.31" shape="5139.32,4168.12 5121.27,4156.77"/>
    </edge>
    <edge id=":102_4" function="internal">
        <lane id=":102_4_0" index="0" disallow="tram rail_urban rail rail_electric rail_fast ship container cable_car subway aircraft wheelchair scooter drone" speed="11.32" length="29.29" shape="5141.03,4165.41 5137.18,4161.27 5136.18,4155.51 5138.03,4148.11 5142.72,4139.09"/>
    </edge>
    <edge id=":102_5" function="internal">
        <lane id=":102_5_0" index="0" disallow="tram rail_urban rail rail_electric rail_fast ship container cable_car subway aircraft wheelchair scooter drone" speed="5.02" length="10.90" shape="5141.03,4165.41 5139.66,4162.34 5139.86,4160.27 5141.65,4159.19 5145.01,4159.10"/>
    </edge>
    <edge id=":102_6" function="internal">
        <lane id=":102_6_0" index="0" disallow="tram rail_urban rail rail_electric rail_fast ship container cable_car subway aircraft wheelchair scooter drone" speed="6.82" length="9.97" shape="5148.14,4142.46 5147.05,4144.95 5147.02,4147.20 5148.05,4149.21 5150.13,4150.98"/>
    </edge>
    <edge id=":102_7" function="internal">
        <lane id=":102_7_0" index="0" disallow="tram rail_urban rail rail_electric rail_fast ship container cable_car subway aircraft wheelchair scooter drone" speed="22.22" length="38.47" shape="5148.14,4142.46 5128.27,4175.40"/>
    </edge>
    <edge id=":102_8" function="internal">
        <lane id=":102_8_0" index="0" disallow="tram rail_urban rail rail_electric rail_fast ship container cable_car subway aircraft wheelchair scooter drone" speed="11.21" length="28.96" shape="5145.42,4140.77 5139.44,4148.99 5133.70,4153.94 5128.21,4155.63 5122.97,4154.05"/>
    </edge>
    <edge id=":102_9" function="internal">
        <lane id=":102_9_0" index="0" disallow="tram rail_urban rail rail_electric rail_fast ship container cable_car subway aircraft wheelchair scooter drone" speed="3.65" length="4.66" shape="5145.42,4140.77 5144.12,4141.37 5143.23,4141.28 5142.76,4140.53 5142.72,4139.09"/>
    </edge>
    <edge id=":102_10" function="internal">
        <lane id=":102_10_0" index="0" disallow="tram rail_urban rail rail_electric rail_fast ship container cable_car subway aircraft wheelchair scooter drone" speed="6.52" length="9.04" shape="5132.27,4139.22 5134.54,4140.20 5136.59,4140.23 5138.41,4139.30 5140.00,4137.40"/>
    </edge>
    <edge id=":102_11" function="internal">
        <lane id=":102_11_0" index="0" speed="27.78" length="21.38" shape="5132.27,4139.22 5150.13,4150.98"/>
        <lane id=":102_11_1" index="1" speed="27.78" length="21.38" shape="5130.57,4141.93 5148.42,4153.69"/>
        <lane id=":102_11_2" index="2" speed="27.78" length="21.38" shape="5128.87,4144.64 5146.72,4156.40"/>
    </edge>
    <edge id=":102_14" function="internal">
        <lane id=":102_14_0" index="0" disallow="tram rail_urban rail rail_electric rail_fast ship container cable_car subway aircraft wheelchair scooter drone" speed="11.38" length="29.22" shape="5127.17,4147.35 5130.86,4151.33 5131.81,4157.06 5130.02,4164.55 5125.50,4173.79"/>
    </edge>
    <edge id=":102_15" function="internal">
        <lane id=":102_15_0" index="0" disallow="tram rail_urban rail rail_electric rail_fast ship container cable_car subway aircraft wheelchair scooter drone" speed="5.15" length="11.55" shape="5127.17,4147.35 5128.63,4150.60 5128.42,4152.80 5126.53,4153.95 5122.97,4154.05"/>
    </edge>
    <edge id=":102_16" function="internal">
        <lane id=":102_16_0" index="0" disallow="tram rail_urban rail rail_electric rail_fast ship container cable_car subway aircraft wheelchair scooter drone" speed="6.83" length="9.79" shape="5119.97,4170.57 5120.97,4168.11 5120.95,4165.89 5119.92,4163.92 5117.87,4162.19"/>
    </edge>
    <edge id=":102_17" function="internal">
        <lane id=":102_17_0" index="0" disallow="tram rail_urban rail rail_electric rail_fast ship container cable_car subway aircraft wheelchair scooter drone" speed="22.22" length="38.75" shape="5119.97,4170.57 5140.00,4137.40"/>
    </edge>
    <edge id=":102_18" function="internal">
        <lane id=":102_18_0" index="0" disallow="tram rail_urban rail rail_electric rail_fast ship container cable_car subway aircraft wheelchair scooter drone" speed="11.08" length="28.95" shape="5122.74,4172.18 5128.46,4163.92 5134.08,4158.99 5139.60,4157.38 5145.01,4159.10"/>
    </edge>
    <edge id=":102_19" function="internal">
        <lane id=":102_19_0" index="0" disallow="tram rail_urban rail rail_electric rail_fast ship container cable_car subway aircraft wheelchair scooter drone" speed="3.65" length="4.67" shape="5122.74,4172.18 5124.03,4171.55 5124.93,4171.61 5125.42,4172.35 5125.50,4173.79"/>
    </edge>
    <edge id=":103_0" function="internal">
        <lane id=":103_0_0" index="0" disallow="tram rail_urban rail rail_electric rail_fast ship container cable_car subway aircraft wheelchair scooter drone" speed="6.51" length="8.95" shape="5347.04,3832.99 5344.79,3832.03 5342.77,3832.02 5340.97,3832.95 5339.39,3834.82"/>
    </edge>
    <edge id=":103_1" function="internal">
        <lane id=":103_1_0" index="0" disallow="tram rail_urban rail rail_electric rail_fast ship container cable_car subway aircraft wheelchair scooter drone" speed="14.75" length="17.93" shape="5348.70,3830.25 5344.16,3827.51 5341.17,3825.20 5339.09,3822.20 5337.26,3817.33"/>
    </edge>
    <edge id=":103_2" function="internal">
        <lane id=":103_2_0" index="0" disallow="tram rail_urban rail rail_electric rail_fast ship container cable_car subway aircraft wheelchair scooter drone" speed="12.51" length="13.35" shape="5343.18,3815.48 5344.55,3819.06 5346.21,3821.19 5348.57,3822.79 5352.01,3824.77"/>
    </edge>
    <edge id=":103_3" function="internal">
        <lane id=":103_3_0" index="0" disallow="tram rail_urban rail rail_electric rail_fast ship container cable_car subway aircraft wheelchair scooter drone" speed="13.10" length="17.55" shape="5340.13,3816.43 5340.74,3820.33 5340.37,3824.41 5339.01,3828.68 5336.68,3833.13"/>
    </edge>
    <edge id=":103_4" function="internal">
        <lane id=":103_4_0" index="0" disallow="tram rail_urban rail rail_electric rail_fast ship container cable_car subway aircraft wheelchair scooter drone" speed="10.80" length="12.18" shape="5331.24,3829.75 5333.06,3826.41 5334.16,3823.38 5334.54,3820.68 5334.20,3818.28"/>
    </edge>
    <edge id=":103_5" function="internal">
        <lane id=":103_5_0" index="0" disallow="tram rail_urban rail rail_electric rail_fast ship container cable_car subway aircraft wheelchair scooter drone" speed="9.26" length="19.17" shape="5333.96,3831.44 5337.33,3827.43 5341.19,3825.43 5345.53,3825.46 5350.35,3827.51"/>
    </edge>
    <edge id=":104_0" function="internal">
        <lane id=":104_0_0" index="0" disallow="tram rail_urban rail rail_electric rail_fast ship container cable_car subway aircraft wheelchair scooter drone" speed="12.38" length="14.07" shape="5497.71,3455.58 5494.21,3453.25 5491.61,3451.67 5488.85,3451.03 5484.90,3451.54"/>
    </edge>
    <edge id=":104_1" function="internal">
        <lane id=":104_1_0" index="0" disallow="tram rail_urban rail rail_electric rail_fast ship container cable_car subway aircraft wheelchair scooter drone" speed="9.85" length="22.09" shape="5499.40,3452.87 5495.46,3449.31 5493.80,3444.90 5494.42,3439.64 5497.32,3433.53"/>
    </edge>
    <edge id=":104_2" function="internal">
        <lane id=":104_2_0" index="0" disallow="tram rail_urban rail rail_electric rail_fast ship container cable_car subway aircraft wheelchair scooter drone" speed="6.51" length="9.01" shape="5502.76,3436.89 5501.78,3439.15 5501.75,3441.19 5502.68,3443.00 5504.56,3444.59"/>
    </edge>
    <edge id=":104_3" function="internal">
        <lane id=":104_3_0" index="0" disallow="tram rail_urban rail rail_electric rail_fast ship container cable_car subway aircraft wheelchair scooter drone" speed="15.03" length="21.17" shape="5500.04,3435.21 5496.47,3440.20 5492.64,3444.07 5488.54,3446.81 5484.17,3448.42"/>
    </edge>
    <edge id=":104_4" function="internal">
        <lane id=":104_4_0" index="0" disallow="tram rail_urban rail rail_electric rail_fast ship container cable_car subway aircraft wheelchair scooter drone" speed="12.70" length="15.61" shape="5482.42,3440.91 5486.02,3439.74 5489.24,3437.84 5492.11,3435.21 5494.60,3431.84"/>
    </edge>
    <edge id=":104_5" function="internal">
        <lane id=":104_5_0" index="0" disallow="tram rail_urban rail rail_electric rail_fast ship container cable_car subway aircraft wheelchair scooter drone" speed="15.23" length="20.86" shape="5483.14,3444.03 5489.16,3442.92 5493.49,3442.91 5497.58,3444.27 5502.87,3447.30"/>
    </edge>
    <edge id=":105_0" function="internal">
        <lane id=":105_0_0" index="0" disallow="tram rail_urban rail rail_electric rail_fast ship container cable_car subway aircraft wheelchair scooter drone" speed="7.07" length="10.88" shape="5709.66,3112.93 5707.32,3112.04 5705.06,3112.36 5702.89,3113.88 5700.79,3116.61"/>
    </edge>
    <edge id=":105_1" function="internal">
        <lane id=":105_1_0" index="0" disallow="tram rail_urban rail rail_electric rail_fast ship container cable_car subway aircraft wheelchair scooter drone" speed="22.22" length="21.52" shape="5709.66,3112.93 5704.36,3109.77 5700.23,3107.80 5695.88,3106.36 5689.90,3104.76"/>
    </edge>
    <edge id=":105_2" function="internal">
        <lane id=":105_2_0" index="0" disallow="tram rail_urban rail rail_electric rail_fast ship container cable_car subway aircraft wheelchair scooter drone" speed="9.55" length="19.16" shape="5711.36,3110.21 5707.26,3106.82 5705.06,3102.96 5704.75,3098.63 5706.32,3093.83"/>
    </edge>
    <edge id=":105_3" function="internal">
        <lane id=":105_3_0" index="0" disallow="tram rail_urban rail rail_electric rail_fast ship container cable_car subway aircraft wheelchair scooter drone" speed="3.65" length="4.67" shape="5711.36,3110.21 5710.76,3108.90 5710.85,3108.01 5711.61,3107.54 5713.05,3107.50"/>
    </edge>
    <edge id=":105_4" function="internal">
        <lane id=":105_4_0" index="0" disallow="tram rail_urban rail rail_electric rail_fast ship container cable_car subway aircraft wheelchair scooter drone" speed="6.90" length="9.54" shape="5712.05,3096.69 5711.30,3099.02 5711.50,3101.15 5712.65,3103.07 5714.75,3104.79"/>
    </edge>
    <edge id=":105_5" function="internal">
        <lane id=":105_5_0" index="0" disallow="tram rail_urban rail rail_electric rail_fast ship container cable_car subway aircraft wheelchair scooter drone" speed="22.22" length="22.89" shape="5712.05,3096.69 5709.14,3102.38 5706.71,3106.81 5704.13,3111.17 5700.79,3116.61"/>
    </edge>
    <edge id=":105_6" function="internal">
        <lane id=":105_6_0" index="0" disallow="tram rail_urban rail rail_electric rail_fast ship container cable_car subway aircraft wheelchair scooter drone" speed="10.54" length="21.37" shape="5709.18,3095.26 5706.16,3099.38 5702.08,3101.83 5696.93,3102.59 5690.71,3101.66"/>
    </edge>
    <edge id=":105_7" function="internal">
        <lane id=":105_7_0" index="0" disallow="tram rail_urban rail rail_electric rail_fast ship container cable_car subway aircraft wheelchair scooter drone" speed="3.65" length="4.67" shape="5709.18,3095.26 5707.93,3095.97 5707.04,3095.97 5706.50,3095.26 5706.32,3093.83"/>
    </edge>
    <edge id=":105_8" function="internal">
        <lane id=":105_8_0" index="0" disallow="tram rail_urban rail rail_electric rail_fast ship container cable_car subway aircraft wheelchair scooter drone" speed="8.19" length="12.56" shape="5692.33,3095.47 5696.21,3096.11 5699.35,3095.81 5701.77,3094.57 5703.46,3092.39"/>
    </edge>
    <edge id=":105_9" function="internal">
        <lane id=":105_9_0" index="0" disallow="tram rail_urban rail rail_electric rail_fast ship container cable_car subway aircraft wheelchair scooter drone" speed="22.22" length="24.41" shape="5692.33,3095.47 5698.72,3097.25 5703.99,3099.09 5709.03,3101.45 5714.75,3104.79"/>
    </edge>
    <edge id=":105_10" function="internal">
        <lane id=":105_10_0" index="0" disallow="tram rail_urban rail rail_electric rail_fast ship container cable_car subway aircraft wheelchair scooter drone" speed="8.90" length="21.85" shape="5691.52,3098.57 5697.31,3101.00 5700.33,3104.53 5700.58,3109.18 5698.06,3114.93"/>
    </edge>
    <edge id=":105_11" function="internal">
        <lane id=":105_11_0" index="0" disallow="tram rail_urban rail rail_electric rail_fast ship container cable_car subway aircraft wheelchair scooter drone" speed="3.65" length="4.67" shape="5691.52,3098.57 5692.48,3099.64 5692.66,3100.52 5692.07,3101.19 5690.71,3101.66"/>
    </edge>
    <edge id=":105_12" function="internal">
        <lane id=":105_12_0" index="0" disallow="tram rail_urban rail rail_electric rail_fast ship container cable_car subway aircraft wheelchair scooter drone" speed="5.96" length="9.09" shape="5692.62,3111.56 5693.67,3109.17 5693.56,3107.24 5692.31,3105.77 5689.90,3104.76"/>
    </edge>
    <edge id=":105_13" function="internal">
        <lane id=":105_13_0" index="0" disallow="tram rail_urban rail rail_electric rail_fast ship container cable_car subway aircraft wheelchair scooter drone" speed="22.22" length="22.03" shape="5692.62,3111.56 5695.90,3106.24 5698.33,3102.14 5700.62,3097.96 5703.46,3092.39"/>
    </edge>
    <edge id=":105_14" function="internal">
        <lane id=":105_14_0" index="0" disallow="tram rail_urban rail rail_electric rail_fast ship container cable_car subway aircraft wheelchair scooter drone" speed="9.65" length="21.21" shape="5695.34,3113.24 5699.26,3108.34 5703.52,3105.74 5708.12,3105.46 5713.05,3107.50"/>
    </edge>
    <edge id=":105_15" function="internal">