<?xml version="1.0" encoding="UTF-8"?>

<!-- generated on 2025-08-07 13:30:58.368896 by randomTrips.py v1_20_0+0002-343658e7c64
<configuration>
    <net-file value="traffic_simulation\maps\new_yizhuang\new_yizhuang.net.xml"/>
    <route-file value="traffic_simulation\maps\new_yizhuang\new_yizhuang_8000.rou.xml"/>
    <length value="True"/>
    <end value="1800.0"/>
    <period value="0.225"/>
</configuration>
-->

<!-- generated on 2025-08-07 13:30:57 by Eclipse SUMO duarouter Version 1.20.0
<configuration xmlns:xsi="http://www.w3.org/2001/XMLSchema-instance" xsi:noNamespaceSchemaLocation="http://sumo.dlr.de/xsd/duarouterConfiguration.xsd">

    <input>
        <net-file value="traffic_simulation\maps\new_yizhuang\new_yizhuang.net.xml"/>
        <route-files value="trips.trips.xml"/>
    </input>

    <output>
        <output-file value="traffic_simulation\maps\new_yizhuang\new_yizhuang_8000.rou.xml"/>
        <alternatives-output value="NUL"/>
    </output>

    <time>
        <begin value="0"/>
        <end value="1800.0"/>
    </time>

    <report>
        <no-warnings value="true"/>
        <ignore-errors value="true"/>
        <no-step-log value="true"/>
    </report>

</configuration>
-->

<routes xmlns:xsi="http://www.w3.org/2001/XMLSchema-instance" xsi:noNamespaceSchemaLocation="http://sumo.dlr.de/xsd/routes_file.xsd">
    <vType id="ambulance" vClass="passenger" guiShape="emergency" color="0,255,0" />
    <vehicle id="0" depart="0.00">
        <route edges="240486067#0 -240486071#0 240487742#0 240487742#1 240970120#0 47579848 240487751#4 240082983 1209795285#0 240078028#1 240521085#0 -240078026#1 1267918583 -187903249#0"/>
    </vehicle>
    <vehicle id="1" depart="0.23">
        <route edges="1210550572 240970115#0 238304662#1 239074926#2 E19 E20 E21 E22 E23 1304038237#1 E26 E27 -E27"/>
    </vehicle>
    <vehicle id="2" depart="0.45">
        <route edges="242189244#2 240016561#0 240016589#1 240521086#1"/>
    </vehicle>
    <vehicle id="3" depart="0.68">
        <route edges="47621614#0 -47621614#0 240083415#1 47620270#0 47620270#2 23114181#1 238948484#0 238948484#2 238948484#3 -320763328#1 -240082979#0"/>
    </vehicle>
    <vehicle id="4" depart="0.90">
        <route edges="187903266#1 187903279 241491910#1 244552112#0 240016577#1 240016566#0 240016574#1 187903169#0 255530696#0 237224754 240521088#1 1210541169 -187903269#0"/>
    </vehicle>
    <vehicle id="5" depart="1.12">
        <route edges="-E22 -E21 238198693#2 241441757#2 241441756 201526567 E4 187903275#3 187903276#2 187903276#5 187903276#7 708387261#1 47620262#22 47620262#24 29380268#1 29380268#3 238089047#1 238089047#2"/>
    </vehicle>
    <vehicle id="6" depart="1.35">
        <route edges="-187903242 242189244#2 240016561#0 240010972#0 240016552#0 187903275#3 187903276#2 187903276#5 187903276#7 708387261#1 47693387#0 47693387#1 47621022#13 47621022#14 47621022#16 47621022#19 238089047#5 1150166397#0 -313777520#4 -88697147"/>
    </vehicle>
    <vehicle id="7" depart="1.58">
        <route edges="240486075#0 258285698#1 241509557#0 240486073#1 1304038235#0 30048379#1 240486079 187903277 1268314607 240638687#0 240638687#3 708387263#1 238313292#2-AddedOnRampEdge -238313297 238313297"/>
    </vehicle>
    <vehicle id="8" depart="1.80">
        <route edges="-E23 E25 -241441755#0 241441754#2 240016577#1 240016566#0 240016574#1 187903169#0 240016555#1 240016558#1 240016561#0"/>
    </vehicle>
    <vehicle id="9" depart="2.03">
        <route edges="312174163#2 1210550572 240970115#0 238304662#1 27997430#1 1209795284#1 -1210099837"/>
    </vehicle>
    <vehicle id="10" depart="2.25">
        <route edges="312174162#1 1267924287#0 238304662#1 27997430#1 240970122#0"/>
    </vehicle>
    <vehicle id="11" depart="2.48">
        <route edges="1299956145#1 23122311#1 240016589#6 -320763326#0"/>
    </vehicle>
    <vehicle id="12" depart="2.70">
        <route edges="E17 27997430#1 240970122#0 -1210541175#2 E4 187903169#0 240016555#1 240016558#1 187903228#1 1299956145#1 1299956154#1"/>
    </vehicle>
    <vehicle id="13" depart="2.93">
        <route edges="-240082983 E20 238689596 238689599#1 240969765#1 240969765#3 240486071#0 -240486071#0"/>
    </vehicle>
    <vehicle id="14" depart="3.15">
        <route edges="47620262#20 23114181#1 -1004615328#0 -320658906#5 -240016589#9 240016589#9"/>
    </vehicle>
    <vehicle id="15" depart="3.38">
        <route edges="312174163#2 1210550572 240970115#0 238304662#1 27997430#1 240970122#0 1210541177#1 -240078027 -199429768 187903244 187903242 242189238#1"/>
    </vehicle>
    <vehicle id="16" depart="3.60">
        <route edges="238304664#3 240970115#0 238304662#1 239074926#2 E19 E20 E21 E22 E23 1304038237#1 E26 E28"/>
    </vehicle>
    <vehicle id="17" depart="3.83">
        <route edges="145 1301649998#2 47579848 238198693#2 241441757#2 241441756 239074902#0 -E7 -E5 238819090#3"/>
    </vehicle>
    <vehicle id="18" depart="4.05">
        <route edges="320763326#0 -320763326#0 -240082980#0 374381441#2 374381441#4 374381441#7 27527355#0 240016568#1 240082982#0"/>
    </vehicle>
    <vehicle id="19" depart="4.28">
        <route edges="47621022#10 255985295#9 238313296#1 238313296#2 1150088213#1-AddedOnRampEdge 238313293#12-AddedOnRampEdge 708387262#1 187903278#0 241796388#1 187903279 241491910#1 241793320 27349407#1 240635781#0 240487750#1 27349439#2 234405386#0 240010954#3"/>
    </vehicle>
    <vehicle id="20" depart="4.50">
        <route edges="241441754#2 240016577#1 240016566#0 240016574#1 187903169#0 255530696#0 237224754 240521088#1 1210541169 -187903269#0 187903213#5 -23133394#0"/>
    </vehicle>
    <vehicle id="21" depart="4.72">
        <route edges="-E27 E27 47574255#1 240010952#3 240010952#5 1267851957#0"/>
    </vehicle>
    <vehicle id="22" depart="4.95">
        <route edges="-240016589#1 240010972#0 240016552#0 27527355#0 -239074902#0 1268292701 1268292702#0 1057550149#0 238689596 238689599#1 240969767 1267857299 239586546 1267927774#0 1267932750 101939311#1"/>
    </vehicle>
    <vehicle id="23" depart="5.17">
        <route edges="-240486071#2 -240486067#1 241509557#0 240486073#1 1304038235#0 30048379#1 240486079 240638684 244552112#0 240016577#1 240016566#0 240016574#1 187903169#0 240016555#1 240016558#1 187903176#1 23133372#1 1267697377#2"/>
    </vehicle>
    <vehicle id="24" depart="5.40">
        <route edges="240227472#0 240227472#1 187903268#0 240638687#0 240082979#0 1301652307#2 1301652306#1"/>
    </vehicle>
    <vehicle id="25" depart="5.62">
        <route edges="1301650000 1301648391#0 1301648391#1 -1267927771#0 -1267927774#0 240487748 1267859842#1 1208850912#1 240970120#0 47579848 240487751#4 240487751#5 240487751#6 -E17 -E16"/>
    </vehicle>
    <vehicle id="26" depart="5.85">
        <route edges="1210088325#0 238304661#4 1210550579#0-AddedOnRampEdge 238304666#1 312174158#1 1210550573#0 892042925#2"/>
    </vehicle>
    <vehicle id="27" depart="6.07">
        <route edges="240486073#1 1304038235#0 -E23 -E22 -E21 238198693#2 241441757#2 1268309802 1210088325#0 240078024#2"/>
    </vehicle>
    <vehicle id="28" depart="6.30">
        <route edges="-47621520#9 -47621614#5 255985295#3 255985295#5 255985295#6 47693390#3 47693390#4 23114181#1 374381441#0 374381441#2 374381441#4 374381441#7 187903169#0 240016555#1 240016558#1 1268305471 242189235"/>
    </vehicle>
    <vehicle id="29" depart="6.52">
        <route edges="-47621504#3 47621022#8 47621022#10 47621022#11 47693390#3 47693390#4 23114181#1 374381441#0 374381441#2 374381441#4 374381441#7 187903169#0 240016555#1 240016558#1 187903176#1 23133372#1 238271554#0 238271554#3 187903224#2"/>
    </vehicle>
    <vehicle id="30" depart="6.75">
        <route edges="E35 E36 27349407#1 240635781#0 240487750#1 27349439#2 240487743#0 240487742#0 203240553#1 240486069"/>
    </vehicle>
    <vehicle id="31" depart="6.97">
        <route edges="238689599#1 240970120#0 47579848 238198693#2 241441757#2 1268309802 1210088325#0 1210541177#1 240654119"/>
    </vehicle>
    <vehicle id="32" depart="7.20">
        <route edges="47620262#14 47620262#16 47620262#19 47620262#20 23114181#1 -1004615328#0 -320658906#5 -320658906#3 -320658906#1 1268314608#0 1268314608#1 1268314609#1 290505066"/>
    </vehicle>
    <vehicle id="33" depart="7.42">
        <route edges="-E30 892042925#2 1267924287#0 238304662#1 27997430#1 240970122#0 -1210541175#2 E4 187903275#3 187903276#2 187903276#5 -320763325#3 -320763325#1 -187903283#3"/>
    </vehicle>
    <vehicle id="34" depart="7.65">
        <route edges="1267934219 -1267927774#0 240487748 1267859842#1 1208850912#1 240970120#0 47579848 240487751#4 240082983 1209795285#0 240078028#1 -240654119 1210541178#0"/>
    </vehicle>
    <vehicle id="35" depart="7.87">
        <route edges="-E15 -E13 241491908#3 -187903264#4 -240973661#0 187903251 -E12 -E11 E11"/>
    </vehicle>
    <vehicle id="36" depart="8.10">
        <route edges="47621504#4 47620262#16 47620262#19 47620262#20 23114181#1 374381441#0 374381441#2 374381441#4 374381441#7 187903169#0 240016555#1 240016558#1 1268305471"/>
    </vehicle>
    <vehicle id="37" depart="8.32">
        <route edges="240487742#0 240487742#1 240970120#0 47579848 238198693#2 241441757#2 241441756 201526567 238304667#0 237224754 -199429768 187903244"/>
    </vehicle>
    <vehicle id="38" depart="8.55">
        <route edges="47693420#4 255985295#6 47693390#3 47693390#4 23114181#1 374381441#0 374381441#2 374381441#4 374381441#7 187903169#0 240016555#1 240016558#1 187903176#1 23133372#1"/>
    </vehicle>
    <vehicle id="39" depart="8.77">
        <route edges="1209795284#1 1209795285#0 240970122#0 -1210541175#2 E4 187903275#3 187903276#2 187903276#5 187903276#7 708387261#1 47620262#22 47620262#24 29380268#1 29380268#3 238089047#1 -1150166404#2 1150166404#2"/>
    </vehicle>
    <vehicle id="40" depart="9.00">
        <route edges="238819090#5 -187903285#0 -241793322#0 240016577#1 240082982#0 240082982#3 1268309802 1210099837"/>
    </vehicle>
    <vehicle id="41" depart="9.22">
        <route edges="240010954#1 234405385#3 240486073#1 1304038235#0 30048379#1 240486079 187903277 1268314607 240638687#0 240638687#3 E9 E10 E0 E6 708387261#1 47693387#0 47693387#1 47693387#3"/>
    </vehicle>
    <vehicle id="42" depart="9.45">
        <route edges="187903234#2 187903234#4 187903281#1 241796389 E16 E17 239074926#2 E19 E20 E21 -E24"/>
    </vehicle>
    <vehicle id="43" depart="9.67">
        <route edges="E8 290505070#1 865448537 320658906#1 320658906#3 320658906#5 1004615328#0 708387261#1 47693387#0 47693387#1 47621022#13 47621022#14 47621022#16 47621022#19 238089047#5 238089047#6"/>
    </vehicle>
    <vehicle id="44" depart="9.90">
        <route edges="-240082979#0 241796388#1 187903279 241491910#1 241793320 27349407#1 240635781#0 -E23 -E22 -E21 240487751#4 240487751#5 240487751#6 -E17 -E16 187903282#0 237964776#0 -23133394#0"/>
    </vehicle>
    <vehicle id="45" depart="10.12">
        <route edges="-240521085#0 1210550578 240970122#0 -1210541175#2 E4 187903275#3 187903276#2 187903276#5 187903276#7 708387261#1 47620262#22 47620262#24 29380268#1 29380268#3 240083415#0"/>
    </vehicle>
    <vehicle id="46" depart="10.35">
        <route edges="29129729#2 240487752#0 -E23 -E22 -E21 240487751#4 240487751#5 240487751#6 -E17 -E16 187903282#0 237964776#0 30051917 316321068 187903274#0"/>
    </vehicle>
    <vehicle id="47" depart="10.57">
        <route edges="-237964791#0 E16 E17 239074926#2 E19 E20 E21 E22 E23 30048379#1 238938051#0 238938052#2 1267713744#0 187903226#0"/>
    </vehicle>
    <vehicle id="48" depart="10.80">
        <route edges="E7 240016574#1 238304661#1 238304661#2 238304661#4 1210550579#0-AddedOnRampEdge 238304666#1 238304664#3"/>
    </vehicle>
    <vehicle id="49" depart="11.02">
        <route edges="E24 E22 E23 30048379#1 240486079 187903277 1268314607 240638687#0 240638687#3 708387263#1 238313292#2-AddedOnRampEdge 238313292#2 47621022#7 47621022#8 47621022#10 47621022#11"/>
    </vehicle>
    <vehicle id="50" depart="11.25">
        <route edges="-1210541169 1267918583 187903247#2 242189244#2 187903228#1 1299956145#1 238569264#2 241796379#1"/>
    </vehicle>
    <vehicle id="51" depart="11.47">
        <route edges="240521088#1 240078026#1 -240521085#0 1210550578 1209795284#1 -240082983 E20 238689596 238304669#0"/>
    </vehicle>
    <vehicle id="52" depart="11.70">
        <route edges="1210088325#0 240078024#2 1268314612 1268292702#0 1057550149#0 238689596 238689599#1 240969765#1 240969765#3 240486071#0"/>
    </vehicle>
    <vehicle id="53" depart="11.92">
        <route edges="-240521086#1 -240016589#1 240016558#1 187903176#1 1268305474#1 1267847478 187903213#1 187903213#5 187903281#1"/>
    </vehicle>
    <vehicle id="54" depart="12.15">
        <route edges="187903288#1 -187903288#1 -187903285#0 -241793322#0 240016577#1 240016566#0 240016574#1 238304661#1 238304661#2 238304661#4 240078028#1 -E18 E17"/>
    </vehicle>
    <vehicle id="55" depart="12.37">
        <route edges="47621504#4 47620270#9 708387262#1 187903278#0 241796388#1 187903279 241491910#1 244552112#0 240016577#1 240082982#0 240082982#3 1268309802 1210099837"/>
    </vehicle>
    <vehicle id="56" depart="12.60">
        <route edges="234412461 1301648396#3 238304662#1 27997430#1 240970122#0 -1210541175#2 E4 187903275#3 187903276#2 187903276#5 187903276#7 708387261#1 47620270#4 47620270#5 1150075347#1 -47693411#0"/>
    </vehicle>
    <vehicle id="57" depart="12.82">
        <route edges="47693411#5 47693420#4 255985295#6 255985295#8 255985295#9 238313296#1 47621504#3"/>
    </vehicle>
    <vehicle id="58" depart="13.05">
        <route edges="1267857299 239586546 -240486069 240486069"/>
    </vehicle>
    <vehicle id="59" depart="13.27">
        <route edges="240077505#0 240970120#0 47579848 238198693#2 241441757#2 241441756 239074902#0 -E7 -E5 238273914#0 -320763325#1"/>
    </vehicle>
    <vehicle id="60" depart="13.50">
        <route edges="258285698#1 241509557#0 240486073#1 1304038235#0 30048379#1 240486079 187903277 1268314607 240638687#0 240638687#3 708387263#1 238313292#2-AddedOnRampEdge"/>
    </vehicle>
    <vehicle id="61" depart="13.72">
        <route edges="27997405#1 -23285436#2 -23285436#0 1057550149#0 240487751#4 240487751#5 240487751#6 238304666#1"/>
    </vehicle>
    <vehicle id="62" depart="13.95">
        <route edges="-1004615328#0 1004615328#0 238948484#0 238948484#2 238948484#3 238948484#4 187903278#0 241796388#1 187903279 1268314607"/>
    </vehicle>
    <vehicle id="63" depart="14.17">
        <route edges="-1267927773#1 -1267927774#0 240487748 1267859842#1 1208850912#1 240970120#0 47579848 238198693#2 241441757#2 241441756 201526567 E4 187903275#3 187903276#2 187903276#5 187903276#7 708387261#1"/>
    </vehicle>
    <vehicle id="64" depart="14.40">
        <route edges="47621507#4 47620262#19 47620262#20 23114181#1 374381441#0 374381441#2"/>
    </vehicle>
    <vehicle id="65" depart="14.62">
        <route edges="1267924287#0 238304662#1 -E17 -E16 187903282#0 -237224757#1"/>
    </vehicle>
    <vehicle id="66" depart="14.85">
        <route edges="47621507#4 47620270#7 47620270#9 708387262#1 187903278#0 241796388#1 27349341#0 187903226#0 -27349550#7 E13"/>
    </vehicle>
    <vehicle id="67" depart="15.07">
        <route edges="-240078025#0 -240521085#0 1210550578 1209795284#1 -240082983 E20 238689596 238689599#1 240969765#1 240969765#3 240486066#2 234405386#0 234405386#1 234405385#2"/>
    </vehicle>
    <vehicle id="68" depart="15.30">
        <route edges="-238304667#0 E4 27527355#0 240016568#1 240016571#1 E35 E36 27349407#1 240635781#0 240487750#1 27349439#2 240487746#1 241509556#0 258296020#1"/>
    </vehicle>
    <vehicle id="69" depart="15.52">
        <route edges="258296020#1 258285697#0 258285698#1 241509557#0 240486073#1 1304038235#0 30048379#1 240486079 240638684 244552112#0 240016577#1 240016566#0 240016574#1 187903169#0 240016555#1 240016558#1 187903176#1 23133372#1 238271554#0 -242189238#1"/>
    </vehicle>
    <vehicle id="70" depart="15.75">
        <route edges="23133394#0 187903281#1 241796389 E16 E17 239074926#2 E19 E20 238689596 238689599#1"/>
    </vehicle>
    <vehicle id="71" depart="15.97">
        <route edges="1209795284#1 1209795285#0 240970122#0 -1210541175#2 E4 187903275#3 187903276#2 187903276#5 187903276#7 708387261#1 47620270#4 47620270#5 47620270#7 -47621504#5 47621504#4"/>
    </vehicle>
    <vehicle id="72" depart="16.20">
        <route edges="187903267#0 187903267#2 187903267#3 374381441#4 374381441#7 238304661#1 238304661#2 238304661#4 240078028#1 -E18"/>
    </vehicle>
    <vehicle id="73" depart="16.42">
        <route edges="238304667#0 237224754 -199429768 187903244 187903242 242189238#1"/>
    </vehicle>
    <vehicle id="74" depart="16.65">
        <route edges="-865448537 E8 1268314611#0 1267697377#2 30051754#0 240016561#0 240010972#0 240016552#0 27527355#0 -239074902#0 1268292701 1268292702#0"/>
    </vehicle>
    <vehicle id="75" depart="16.87">
        <route edges="E7 240016568#1 240016571#1 E35 E36 27349407#1 240486079"/>
    </vehicle>
    <vehicle id="76" depart="17.10">
        <route edges="187903276#5 374381441#2 238819090#1 238273914#0"/>
    </vehicle>
    <vehicle id="77" depart="17.32">
        <route edges="-241441755#0 241441755#0 29129683#2 240635781#0 240487750#1 27349439#2 240487746#1 241509556#0 E31 -E31"/>
    </vehicle>
    <vehicle id="78" depart="17.55">
        <route edges="1268314613#1 241491910#1 244552112#0 240016577#1 240016566#0 240016574#1 187903169#0 240016555#1 240016558#1"/>
    </vehicle>
    <vehicle id="79" depart="17.77">
        <route edges="-E30 892042925#2 1267924287#0 238304662#1 239074926#2 E19 E20 238198693#2 23285436#0 23285436#2 241441755#0 -E25"/>
    </vehicle>
    <vehicle id="80" depart="18.00">
        <route edges="-238313297 238313297 238313293#12-AddedOnRampEdge 708387262#1 187903278#0 241796388#1 27349341#0 187903226#0 187903226#1 240227472#0"/>
    </vehicle>
    <vehicle id="81" depart="18.22">
        <route edges="-E30 892042925#2 1267924287#0 238304662#1 27997430#1 240970122#0 -1210541175#2 E4 187903275#3 187903276#2 187903276#5 187903276#7 708387261#1 47620270#4 47693393#1 47693393#2"/>
    </vehicle>
    <vehicle id="82" depart="18.45">
        <route edges="47620270#7 47620270#9 708387262#1 187903278#0 241796388#1 187903279 187903264#3 -238938052#3"/>
    </vehicle>
    <vehicle id="83" depart="18.67">
        <route edges="1004615328#0 374381441#0 374381441#2 238819091#0 240521080#3"/>
    </vehicle>
    <vehicle id="84" depart="18.90">
        <route edges="-E17 -E16 E16 E17 239074926#2 E19 E20 238689596 238689599#1 240969767 1267857299 239586546 1267927774#0 -258296026"/>
    </vehicle>
    <vehicle id="85" depart="19.12">
        <route edges="708387263#1 708387262#1 187903278#0 241796388#1 187903279 241491910#1 241793320 27349407#1 240635781#0 -E23 -E22 -E21 240487751#4 240487751#5 240487751#6 239074926#2"/>
    </vehicle>
    <vehicle id="86" depart="19.35">
        <route edges="23133394#0 187903281#1 241796389 E16 E17 239074926#2 E19 E20 E21 E22 E25 29129683#2"/>
    </vehicle>
    <vehicle id="87" depart="19.58">
        <route edges="312174163#2 1210550572 240970115#0 238304662#1 27997430#1 240970122#0 -1210541175#2 E4 187903275#3 187903276#2 187903276#5 187903276#7 708387261#1 47620262#22 47693420#1 -47693435#6"/>
    </vehicle>
    <vehicle id="88" depart="19.80">
        <route edges="-240486067#4 -240486067#1 241509557#0 240486073#1 1304038235#0 30048379#1 240486079 187903277 1268314607 187903279"/>
    </vehicle>
    <vehicle id="89" depart="20.03">
        <route edges="187903267#0 187903267#2 187903267#3 374381441#4 374381441#7 238304661#1 238304661#2 238304661#4 1210550579#0-AddedOnRampEdge -E17 -E16 237964791#0 23133394#0"/>
    </vehicle>
    <vehicle id="90" depart="20.25">
        <route edges="241796389 E16 E18 240521085#0"/>
    </vehicle>
    <vehicle id="91" depart="20.48">
        <route edges="E32 E33 -E31 258296027 -240486071#2"/>
    </vehicle>
    <vehicle id="92" depart="20.70">
        <route edges="187903239#0 187903213#5 187903281#1 241796389 E16 E17 239074926#2 E19 E20 E21 E22 E23 240487750#1 27349439#2 240487746#1 241509556#0 258296020#1 1301650000 1301648391#0"/>
    </vehicle>
    <vehicle id="93" depart="20.93">
        <route edges="47621022#10 47621022#11 47621022#13 47621022#14 1150166424#3"/>
    </vehicle>
    <vehicle id="94" depart="21.15">
        <route edges="-47693420#4 -47693420#3 -47693420#2 47620270#2 23114181#1 374381441#0 374381441#2 374381441#4 374381441#7 238304661#1 -201526567 1268292701 1268292702#0 1057550149#0 238689596 238689599#1 240969767 203240552"/>
    </vehicle>
    <vehicle id="95" depart="21.38">
        <route edges="187903266#1 187903279 241491910#1 244552112#0 240016577#1 240016566#0 240016574#1 187903169#0 240016555#1 240016558#1 187903176#1 23133372#1 1267697377#2"/>
    </vehicle>
    <vehicle id="96" depart="21.60">
        <route edges="1150166388#3 1150166388#4 1150166388#5 240083415#0 240083415#1 47620270#0 47620270#2 23114181#1 374381441#0 374381441#2 374381441#4 374381441#7 238304661#1 238304661#2 238304661#4 1210550579#0-AddedOnRampEdge 238304666#1 238304664#3 1112675269#1 23167988#2-AddedOnRampEdge 483200541#0"/>
    </vehicle>
    <vehicle id="97" depart="21.83">
        <route edges="187903279 1268314607 240638687#0 240638687#3 E9 E10 E0 E6 708387261#1 47693387#0 47693387#1 47621022#13"/>
    </vehicle>
    <vehicle id="98" depart="22.05">
        <route edges="238313296#2 1150088213#1-AddedOnRampEdge 238313293#12-AddedOnRampEdge 708387262#1 187903278#0 241796388#1 187903279 241491910#1 244552112#0 -241441754#2 -23285436#2 -23285436#0"/>
    </vehicle>
    <vehicle id="99" depart="22.28">
        <route edges="E9 238948484#4 187903278#0 241796388#1 187903279 241491910#1 241793320 27349407#1 240635781#0 1304038237#1 E26 E27 47574255#1"/>
    </vehicle>
    <vehicle id="100" depart="22.50">
        <route edges="E23 240487750#1 27349439#2 240487743#0 240487742#0 240487742#1 240970119#3 58648212"/>
    </vehicle>
    <vehicle id="101" depart="22.73">
        <route edges="47620262#22 47620262#24 47621581#1 47621581#2 47621581#3 47621581#5 47621520#8 -47621520#8"/>
    </vehicle>
    <vehicle id="102" depart="22.95">
        <route edges="234405381#1 234405381#2-AddedOffRampEdge 1304038235#0 -E23 -E22 -E21"/>
    </vehicle>
    <vehicle id="103" depart="23.18">
        <route edges="187903238 -187903242 1267844931#1 1267847477 1210541169 237224757#0 -240521083#1 -237964791#0"/>
    </vehicle>
    <vehicle id="104" depart="23.40">
        <route edges="145 -58648212 240077505#0 240969765#1 240969765#3 240486066#2 234405386#0 234405386#1 240010952#5 1267851957#0 E33"/>
    </vehicle>
    <vehicle id="105" depart="23.63">
        <route edges="1209795284#1 1209795285#0 240078028#1 240521085#0 -240078026#1 1267918583 -187903249#0 255530674#0 290505071#0 290505071#2"/>
    </vehicle>
    <vehicle id="106" depart="23.85">
        <route edges="187903296#2 240016558#1 187903176#1 23133372#1 238271554#0 238271554#3 255530695#0 187903274#0"/>
    </vehicle>
    <vehicle id="107" depart="24.08">
        <route edges="E17 27997430#1 240970122#0 -1210541175#2 E4 27527355#0 -E7 E7"/>
    </vehicle>
    <vehicle id="108" depart="24.30">
        <route edges="238689596 238689599#1 240969765#1 240969765#3 240486066#2 240487746#1 241509557#0"/>
    </vehicle>
    <vehicle id="109" depart="24.53">
        <route edges="-320763325#1 -1301652307#2 -240082979#0 241796388#1 187903279 241491910#1 241793320 27349407#1 240635781#0 240487750#1 27349439#2 240487746#1 241509556#0 258296020#1 -1267918584#1 1267918584#0"/>
    </vehicle>
    <vehicle id="110" depart="24.75">
        <route edges="E23 30048379#1 240486079 240638684 244552112#0 240016577#1 240016566#0 240016574#1 187903169#0 240016555#1 240010972#0"/>
    </vehicle>
    <vehicle id="111" depart="24.98">
        <route edges="238304669#0 1304038235#0 30048379#1 240486079 187903277 1268314607 240638687#0 240638687#3 E9 E10 E0 E6 708387261#1 47693387#0 47693387#1 47621022#13 47621022#14 255985295#5"/>
    </vehicle>
    <vehicle id="112" depart="25.20">
        <route edges="-234405380 1299956147 E1 30051754#0 240016561#0 240010972#0 240016552#0"/>
    </vehicle>
    <vehicle id="113" depart="25.43">
        <route edges="234412461 1301648396#3 238304662#1 27997430#1 240970122#0 -1210541175#2 E4 187903275#3 187903276#2 187903276#5 187903276#7 708387261#1 47620270#4"/>
    </vehicle>
    <vehicle id="114" depart="25.65">
        <route edges="-320763325#3 -238273914#0 E5 E7 -239074902#0 1268292701 1268292702#0 1057550149#0 240487751#4 E20"/>
    </vehicle>
    <vehicle id="115" depart="25.88">
        <route edges="-240016589#1 240010972#0 240016552#0 187903275#3 187903276#2 187903276#5 187903276#7 708387261#1 47693387#0 47693387#1 47621022#13 -47693420#4"/>
    </vehicle>
    <vehicle id="116" depart="26.10">
        <route edges="240016561#0 240016589#1 240521086#1"/>
    </vehicle>
    <vehicle id="117" depart="26.33">
        <route edges="-E5 238819090#3 238819090#5 187903266#1 187903279 187903264#3 -241491908#4"/>
    </vehicle>
    <vehicle id="118" depart="26.55">
        <route edges="47621598#1 47621614#3 47621022#19 238089047#5 1150166397#0 1150166397#1"/>
    </vehicle>
    <vehicle id="119" depart="26.78">
        <route edges="240016561#0 240010972#0 240016552#0 27527355#0 240016568#1 240082982#0"/>
    </vehicle>
    <vehicle id="120" depart="27.00">
        <route edges="187903264#3 -187903264#4 241491910#1 244552112#0 240016577#1 240016566#0 240016574#1 187903169#0 240016552#0"/>
    </vehicle>
    <vehicle id="121" depart="27.23">
        <route edges="238271556#2 290505070#1 865448537"/>
    </vehicle>
    <vehicle id="122" depart="27.45">
        <route edges="-E11 374381441#7 27527355#0 240016568#1 240016571#1 E35 E36 27349407#1 240635781#0 240487750#1 27349439#2 234405386#0 -240010954#1 241509555#1"/>
    </vehicle>
    <vehicle id="123" depart="27.68">
        <route edges="1004615328#0 374381441#0 374381441#2 374381441#4 374381441#7 187903169#0 240016555#1 -187903296#2 187903244"/>
    </vehicle>
    <vehicle id="124" depart="27.90">
        <route edges="240521080#1 23122311#3 374381441#4 374381441#7 238304661#1 238304661#2 238304661#4 1210550579#0-AddedOnRampEdge 238304666#1 312174158#1 1267924287#0"/>
    </vehicle>
    <vehicle id="125" depart="28.13">
        <route edges="1267934219 -1267927774#0 240486076 240486075#0 258285698#1 241509557#0 240486073#1 1304038235#0 30048379#1 240486079 187903277 1268314607 240638687#0 240638687#3 708387263#1 238313292#2-AddedOnRampEdge 238313292#2 47621022#7 47621022#8 47621022#10 255985295#9"/>
    </vehicle>
    <vehicle id="126" depart="28.35">
        <route edges="-238938051#0 240486079 240638684 244552112#0 240016577#1 240016566#0 240016574#1 187903275#3 187903276#2 238819091#0 23122311#3"/>
    </vehicle>
    <vehicle id="127" depart="28.58">
        <route edges="E8 -234405380 1299956147 -238273915#1 -240521086#1 -240521086#0 187903261 E11 E7"/>
    </vehicle>
    <vehicle id="128" depart="28.80">
        <route edges="-238938051#0 -29129683#3 -241441755#0 -27997405#1 240082982#3 1268309802 1210088325#0 238304661#4 240078028#1 -E18"/>
    </vehicle>
    <vehicle id="129" depart="29.03">
        <route edges="1209795284#1 -1210099837 1268314612 1268309796#3 1268309796#5 240016571#1 E35 E36 187903215 187903277 1268314607 240638687#0 240638687#3 708387263#1"/>
    </vehicle>
    <vehicle id="130" depart="29.25">
        <route edges="47621520#6 47621520#8"/>
    </vehicle>
    <vehicle id="131" depart="29.48">
        <route edges="1301649998#2 47579848 238198693#2 241441757#2 241441756 239074902#0 240016574#1 187903169#0 240016555#1 240016558#1 187903228#1 1299956145#1 238569264#2 -320763326#1"/>
    </vehicle>
    <vehicle id="132" depart="29.70">
        <route edges="374381441#0 374381441#2 374381441#4 374381441#7 238304661#1 -201526567 1268292701 241441756"/>
    </vehicle>
    <vehicle id="133" depart="29.93">
        <route edges="240077505#0 240969765#1 240969765#3 240486066#2 234405386#0 234405386#1 240010952#5 1267851957#0 E33"/>
    </vehicle>
    <vehicle id="134" depart="30.15">
        <route edges="240486079 240638684 241793320 27349407#1 240635781#0 -E23 -E22 -E21 240487751#4 240487751#5 240487751#6 -E17 -E16 187903282#0 -237224757#1 -1210541169"/>
    </vehicle>
    <vehicle id="135" depart="30.38">
        <route edges="316321068 255530695#4 187903234#4 187903281#1 241796389 E16 E17 238304666#1 312174158#1 1267924287#0"/>
    </vehicle>
    <vehicle id="136" depart="30.60">
        <route edges="240487750#1 1304038235#0 30048379#1 240486079 187903277 1268314607 240638687#0 240638687#3 E9 E10 E0"/>
    </vehicle>
    <vehicle id="137" depart="30.83">
        <route edges="-255530696#0 240016552#0 27527355#0 240016568#1 240016571#1 E35 E36 187903215 187903277 -240973661#0"/>
    </vehicle>
    <vehicle id="138" depart="31.05">
        <route edges="-240521083#1 -237964791#0 E16 E17 27997430#1 240970122#0 -1210541175#2 E4 187903275#3 187903276#2 238819090#1 238819090#3 238819090#5"/>
    </vehicle>
    <vehicle id="139" depart="31.28">
        <route edges="1210541177#1 240654119 1210550578 1210550579#0-AddedOnRampEdge 238304666#1 145 -58648212 240077505#0"/>
    </vehicle>
    <vehicle id="140" depart="31.50">
        <route edges="241509555#0 240010954#1 234405386#1 241491906#2 241491906#4 -E15 -E13"/>
    </vehicle>
    <vehicle id="141" depart="31.73">
        <route edges="240227472#0 240227472#1 187903268#0 187903279 241491910#1 244552112#0 240016577#1 240016566#0 240016574#1 187903169#0 255530696#0 237224754 240521088#1 1210541169"/>
    </vehicle>
    <vehicle id="142" depart="31.95">