<?xml version="1.0" encoding="UTF-8"?>

<!-- generated on 2024-08-18 19:07:09 by Eclipse SUMO sumo Version 1.19.0
-->

<configuration xmlns:xsi="http://www.w3.org/2001/XMLSchema-instance" xsi:noNamespaceSchemaLocation="http://sumo.dlr.de/xsd/sumoConfiguration.xsd">

    <input>
        <net-file value="new_yizhuang.net.xml"/>
        <route-files value="new_yizhuang_10500.rou.xml"/>
    </input>

</configuration>