<?xml version="1.0" encoding="UTF-8"?>

<!-- generated on 2025-08-03 00:16:02 by Eclipse SUMO netedit Version 1.20.0
<configuration xmlns:xsi="http://www.w3.org/2001/XMLSchema-instance" xsi:noNamespaceSchemaLocation="http://sumo.dlr.de/xsd/neteditConfiguration.xsd">

    <input>
        <sumo-net-file value="traffic_simulation\maps\hangzhou\hangzhou.net.xml"/>
    </input>

    <output>
        <output-file value="traffic_simulation\maps\hangzhou\hangzhou.net.xml"/>
    </output>

    <processing>
        <geometry.min-radius.fix.railways value="false"/>
        <geometry.max-grade.fix value="false"/>
        <offset.disable-normalization value="true"/>
        <lefthand value="0"/>
    </processing>

    <junctions>
        <no-turnarounds value="true"/>
        <junctions.corner-detail value="5"/>
        <junctions.limit-turn-speed value="5.50"/>
        <rectangular-lane-cut value="0"/>
    </junctions>

    <pedestrian>
        <walkingareas value="0"/>
    </pedestrian>

</configuration>
-->

<net version="1.20" junctionCornerDetail="5" limitTurnSpeed="5.50" xmlns:xsi="http://www.w3.org/2001/XMLSchema-instance" xsi:noNamespaceSchemaLocation="http://sumo.dlr.de/xsd/net_file.xsd">

    <location netOffset="-224741.82,-3335748.74" convBoundary="5203.39,11568.52,7893.54,15097.06" origBoundary="120.140823,30.110257,120.270450,30.313394" projParameter="+proj=utm +zone=51 +ellps=WGS84 +datum=WGS84 +units=m +no_defs"/>

    <type id="highway.primary" priority="12" numLanes="2" speed="27.78" disallow="tram rail_urban rail rail_electric rail_fast ship container cable_car subway aircraft wheelchair scooter drone" oneway="0"/>
    <type id="highway.secondary" priority="11" numLanes="1" speed="27.78" disallow="tram rail_urban rail rail_electric rail_fast ship container cable_car subway aircraft wheelchair scooter drone" oneway="0"/>
    <type id="highway.tertiary" priority="10" numLanes="1" speed="22.22" disallow="tram rail_urban rail rail_electric rail_fast ship container cable_car subway aircraft wheelchair scooter drone" oneway="0"/>
    <type id="highway.unclassified" priority="4" numLanes="1" speed="13.89" disallow="tram rail_urban rail rail_electric rail_fast ship container cable_car subway aircraft wheelchair scooter drone" oneway="0"/>

    <edge id=":1_0" function="internal">
        <lane id=":1_0_0" index="0" disallow="tram rail_urban rail rail_electric rail_fast ship container cable_car subway aircraft wheelchair scooter drone" speed="7.47" length="11.73" shape="6781.82,14939.61 6779.58,14937.26 6777.14,14936.13 6774.49,14936.21 6771.63,14937.51"/>
    </edge>
    <edge id=":1_1" function="internal">
        <lane id=":1_1_0" index="0" disallow="tram rail_urban rail rail_electric rail_fast ship container cable_car subway aircraft wheelchair scooter drone" speed="27.78" length="39.20" shape="6781.82,14939.61 6758.85,14907.82"/>
        <lane id=":1_1_1" index="1" disallow="tram rail_urban rail rail_electric rail_fast ship container cable_car subway aircraft wheelchair scooter drone" speed="27.78" length="39.20" shape="6784.38,14937.68 6761.44,14905.94"/>
    </edge>
    <edge id=":1_3" function="internal">
        <lane id=":1_3_0" index="0" disallow="tram rail_urban rail rail_electric rail_fast ship container cable_car subway aircraft wheelchair scooter drone" speed="11.78" length="33.82" shape="6786.94,14935.76 6781.93,14926.78 6780.68,14918.93 6783.21,14912.22 6789.50,14906.63"/>
    </edge>
    <edge id=":1_4" function="internal">
        <lane id=":1_4_0" index="0" disallow="tram rail_urban rail rail_electric rail_fast ship container cable_car subway aircraft wheelchair scooter drone" speed="4.56" length="8.55" shape="6786.94,14935.76 6786.79,14933.13 6787.52,14931.66 6789.13,14931.37 6791.62,14932.24"/>
    </edge>
    <edge id=":1_5" function="internal">
        <lane id=":1_5_0" index="0" disallow="tram rail_urban rail rail_electric rail_fast ship container cable_car subway aircraft wheelchair scooter drone" speed="6.33" length="9.05" shape="6798.17,14920.75 6796.25,14922.38 6795.37,14924.19 6795.53,14926.20 6796.74,14928.40"/>
    </edge>
    <edge id=":1_6" function="internal">
        <lane id=":1_6_0" index="0" disallow="tram rail_urban rail rail_electric rail_fast ship container cable_car subway aircraft wheelchair scooter drone" speed="22.22" length="31.46" shape="6798.17,14920.75 6771.63,14937.51"/>
        <lane id=":1_6_1" index="1" disallow="tram rail_urban rail rail_electric rail_fast ship container cable_car subway aircraft wheelchair scooter drone" speed="22.22" length="31.46" shape="6796.49,14918.03 6769.89,14934.83"/>
        <lane id=":1_6_2" index="2" disallow="tram rail_urban rail rail_electric rail_fast ship container cable_car subway aircraft wheelchair scooter drone" speed="22.22" length="31.46" shape="6794.82,14915.30 6768.16,14932.14"/>
    </edge>
    <edge id=":1_9" function="internal">
        <lane id=":1_9_0" index="0" disallow="tram rail_urban rail rail_electric rail_fast ship container cable_car subway aircraft wheelchair scooter drone" speed="12.47" length="34.00" shape="6793.15,14912.57 6785.43,14915.73 6778.00,14915.36 6770.87,14911.47 6764.02,14904.05"/>
    </edge>
    <edge id=":1_10" function="internal">
        <lane id=":1_10_0" index="0" disallow="tram rail_urban rail rail_electric rail_fast ship container cable_car subway aircraft wheelchair scooter drone" speed="4.89" length="10.18" shape="6793.15,14912.57 6790.01,14912.45 6788.35,14911.42 6788.19,14909.48 6789.50,14906.63"/>
    </edge>
    <edge id=":1_11" function="internal">
        <lane id=":1_11_0" index="0" disallow="tram rail_urban rail rail_electric rail_fast ship container cable_car subway aircraft wheelchair scooter drone" speed="7.74" length="12.50" shape="6773.40,14897.21 6775.59,14899.38 6778.17,14900.31 6781.13,14900.00 6784.48,14898.45"/>
    </edge>
    <edge id=":1_12" function="internal">
        <lane id=":1_12_0" index="0" disallow="tram rail_urban rail rail_electric rail_fast ship container cable_car subway aircraft wheelchair scooter drone" speed="27.78" length="38.98" shape="6773.40,14897.21 6796.74,14928.40"/>
        <lane id=":1_12_1" index="1" disallow="tram rail_urban rail rail_electric rail_fast ship container cable_car subway aircraft wheelchair scooter drone" speed="27.78" length="38.98" shape="6770.81,14899.10 6794.18,14930.32"/>
    </edge>
    <edge id=":1_14" function="internal">
        <lane id=":1_14_0" index="0" disallow="tram rail_urban rail rail_electric rail_fast ship container cable_car subway aircraft wheelchair scooter drone" speed="11.71" length="32.73" shape="6768.23,14900.98 6773.13,14909.76 6774.46,14917.44 6772.22,14924.00 6766.42,14929.45"/>
    </edge>
    <edge id=":1_15" function="internal">
        <lane id=":1_15_0" index="0" disallow="tram rail_urban rail rail_electric rail_fast ship container cable_car subway aircraft wheelchair scooter drone" speed="4.35" length="7.60" shape="6768.23,14900.98 6768.33,14903.33 6767.66,14904.62 6766.22,14904.86 6764.02,14904.05"/>
    </edge>
    <edge id=":1_16" function="internal">
        <lane id=":1_16_0" index="0" disallow="tram rail_urban rail rail_electric rail_fast ship container cable_car subway aircraft wheelchair scooter drone" speed="6.41" length="9.05" shape="6757.44,14915.54 6759.31,14913.88 6760.17,14912.04 6760.02,14910.02 6758.85,14907.82"/>
    </edge>
    <edge id=":1_17" function="internal">
        <lane id=":1_17_0" index="0" disallow="tram rail_urban rail rail_electric rail_fast ship container cable_car subway aircraft wheelchair scooter drone" speed="22.22" length="31.91" shape="6757.44,14915.54 6784.48,14898.45"/>
        <lane id=":1_17_1" index="1" disallow="tram rail_urban rail rail_electric rail_fast ship container cable_car subway aircraft wheelchair scooter drone" speed="22.22" length="31.91" shape="6759.18,14918.23 6786.15,14901.18"/>
        <lane id=":1_17_2" index="2" disallow="tram rail_urban rail rail_electric rail_fast ship container cable_car subway aircraft wheelchair scooter drone" speed="22.22" length="31.91" shape="6760.91,14920.92 6787.83,14903.91"/>
    </edge>
    <edge id=":1_20" function="internal">
        <lane id=":1_20_0" index="0" disallow="tram rail_urban rail rail_electric rail_fast ship container cable_car subway aircraft wheelchair scooter drone" speed="12.40" length="33.88" shape="6762.65,14923.61 6770.10,14920.43 6777.41,14920.81 6784.59,14924.75 6791.62,14932.24"/>
    </edge>
    <edge id=":1_21" function="internal">
        <lane id=":1_21_0" index="0" disallow="tram rail_urban rail rail_electric rail_fast ship container cable_car subway aircraft wheelchair scooter drone" speed="4.88" length="10.16" shape="6762.65,14923.61 6765.78,14923.65 6767.46,14924.64 6767.67,14926.57 6766.42,14929.45"/>
    </edge>
    <edge id=":10_0" function="internal">
        <lane id=":10_0_0" index="0" disallow="tram rail_urban rail rail_electric rail_fast ship container cable_car subway aircraft wheelchair scooter drone" speed="7.08" length="10.57" shape="6356.62,13620.38 6354.47,13618.27 6352.22,13617.29 6349.87,13617.43 6347.41,13618.68"/>
    </edge>
    <edge id=":10_1" function="internal">
        <lane id=":10_1_0" index="0" disallow="tram rail_urban rail rail_electric rail_fast ship container cable_car subway aircraft wheelchair scooter drone" speed="27.78" length="33.52" shape="6356.62,13620.38 6336.21,13593.79"/>
    </edge>
    <edge id=":10_2" function="internal">
        <lane id=":10_2_0" index="0" disallow="tram rail_urban rail rail_electric rail_fast ship container cable_car subway aircraft wheelchair scooter drone" speed="12.13" length="33.93" shape="6359.05,13618.30 6356.02,13611.11 6355.22,13601.69 6356.74,13592.57 6360.66,13586.26"/>
    </edge>
    <edge id=":10_3" function="internal">
        <lane id=":10_3_0" index="0" disallow="tram rail_urban rail rail_electric rail_fast ship container cable_car subway aircraft wheelchair scooter drone" speed="6.30" length="18.21" shape="6359.05,13618.30 6358.40,13612.72 6359.76,13609.52 6363.15,13608.68 6368.55,13610.22"/>
    </edge>
    <edge id=":10_4" function="internal">
        <lane id=":10_4_0" index="0" disallow="tram rail_urban rail rail_electric rail_fast ship container cable_car subway aircraft wheelchair scooter drone" speed="6.43" length="9.04" shape="6371.76,13600.33 6370.05,13602.14 6369.35,13604.04 6369.66,13606.05 6370.99,13608.15"/>
    </edge>
    <edge id=":10_5" function="internal">
        <lane id=":10_5_0" index="0" disallow="tram rail_urban rail rail_electric rail_fast ship container cable_car subway aircraft wheelchair scooter drone" speed="27.78" length="30.49" shape="6371.76,13600.33 6347.41,13618.68"/>
    </edge>
    <edge id=":10_6" function="internal">
        <lane id=":10_6_0" index="0" disallow="tram rail_urban rail rail_electric rail_fast ship container cable_car subway aircraft wheelchair scooter drone" speed="11.95" length="33.53" shape="6369.78,13597.82 6362.74,13600.21 6353.66,13599.57 6344.89,13596.57 6338.76,13591.87"/>
    </edge>
    <edge id=":10_7" function="internal">
        <lane id=":10_7_0" index="0" disallow="tram rail_urban rail rail_electric rail_fast ship container cable_car subway aircraft wheelchair scooter drone" speed="6.74" length="21.50" shape="6369.78,13597.82 6363.16,13598.35 6359.44,13596.60 6358.61,13592.57 6360.66,13586.26"/>
    </edge>
    <edge id=":10_8" function="internal">
        <lane id=":10_8_0" index="0" disallow="tram rail_urban rail rail_electric rail_fast ship container cable_car subway aircraft wheelchair scooter drone" speed="6.63" length="9.43" shape="6350.44,13583.07 6352.26,13584.78 6354.24,13585.46 6356.38,13585.12 6358.68,13583.75"/>
    </edge>
    <edge id=":10_9" function="internal">
        <lane id=":10_9_0" index="0" disallow="tram rail_urban rail rail_electric rail_fast ship container cable_car subway aircraft wheelchair scooter drone" speed="27.78" length="32.42" shape="6350.44,13583.07 6370.99,13608.15"/>
    </edge>
    <edge id=":10_10" function="internal">
        <lane id=":10_10_0" index="0" disallow="tram rail_urban rail rail_electric rail_fast ship container cable_car subway aircraft wheelchair scooter drone" speed="11.82" length="33.18" shape="6347.88,13585.00 6350.84,13592.07 6351.47,13601.21 6349.71,13610.02 6345.54,13616.09"/>
    </edge>
    <edge id=":10_11" function="internal">
        <lane id=":10_11_0" index="0" disallow="tram rail_urban rail rail_electric rail_fast ship container cable_car subway aircraft wheelchair scooter drone" speed="6.04" length="16.66" shape="6347.88,13585.00 6348.17,13590.13 6346.75,13592.99 6343.62,13593.57 6338.76,13591.87"/>
    </edge>
    <edge id=":10_12" function="internal">
        <lane id=":10_12_0" index="0" disallow="tram rail_urban rail rail_electric rail_fast ship container cable_car subway aircraft wheelchair scooter drone" speed="6.47" length="9.08" shape="6335.07,13601.63 6336.85,13599.91 6337.64,13598.03 6337.42,13595.99 6336.21,13593.79"/>
    </edge>
    <edge id=":10_13" function="internal">
        <lane id=":10_13_0" index="0" disallow="tram rail_urban rail rail_electric rail_fast ship container cable_car subway aircraft wheelchair scooter drone" speed="27.78" length="29.62" shape="6335.07,13601.63 6358.68,13583.75"/>
    </edge>
    <edge id=":10_14" function="internal">
        <lane id=":10_14_0" index="0" disallow="tram rail_urban rail rail_electric rail_fast ship container cable_car subway aircraft wheelchair scooter drone" speed="12.49" length="33.80" shape="6336.95,13604.22 6343.95,13602.14 6353.14,13602.85 6362.14,13605.74 6368.55,13610.22"/>
    </edge>
    <edge id=":10_15" function="internal">
        <lane id=":10_15_0" index="0" disallow="tram rail_urban rail rail_electric rail_fast ship container cable_car subway aircraft wheelchair scooter drone" speed="6.73" length="21.40" shape="6336.95,13604.22 6343.54,13603.97 6347.17,13605.86 6347.84,13609.90 6345.54,13616.09"/>
    </edge>
    <edge id=":11_0" function="internal">
        <lane id=":11_0_0" index="0" disallow="tram rail_urban rail rail_electric rail_fast ship container cable_car subway aircraft wheelchair scooter drone" speed="27.78" length="20.52" shape="6702.44,13334.71 6686.37,13347.47"/>
    </edge>
    <edge id=":11_1" function="internal">
        <lane id=":11_1_0" index="0" disallow="tram rail_urban rail rail_electric rail_fast ship container cable_car subway aircraft wheelchair scooter drone" speed="10.61" length="26.82" shape="6700.46,13332.19 6695.21,13334.62 6689.82,13333.94 6684.29,13330.17 6678.62,13323.30"/>
    </edge>
    <edge id=":11_2" function="internal">
        <lane id=":11_2_0" index="0" disallow="tram rail_urban rail rail_electric rail_fast ship container cable_car subway aircraft wheelchair scooter drone" speed="5.97" length="16.28" shape="6700.46,13332.19 6695.45,13332.57 6692.64,13331.24 6692.02,13328.19 6693.59,13323.41"/>
    </edge>
    <edge id=":11_3" function="internal">
        <lane id=":11_3_0" index="0" disallow="tram rail_urban rail rail_electric rail_fast ship container cable_car subway aircraft wheelchair scooter drone" speed="6.37" length="9.04" shape="6683.91,13319.70 6685.59,13321.54 6687.44,13322.36 6689.45,13322.14 6691.62,13320.89"/>
    </edge>
    <edge id=":11_4" function="internal">
        <lane id=":11_4_0" index="0" disallow="tram rail_urban rail rail_electric rail_fast ship container cable_car subway aircraft wheelchair scooter drone" speed="10.99" length="25.97" shape="6681.26,13321.50 6685.74,13329.25 6687.74,13335.74 6687.28,13340.99 6684.35,13344.99"/>
    </edge>
    <edge id=":11_5" function="internal">
        <lane id=":11_5_0" index="0" disallow="tram rail_urban rail rail_electric rail_fast ship container cable_car subway aircraft wheelchair scooter drone" speed="3.65" length="4.67" shape="6681.26,13321.50 6681.28,13322.94 6680.84,13323.73 6679.96,13323.85 6678.62,13323.30"/>
    </edge>
    <edge id=":11_6" function="internal">
        <lane id=":11_6_0" index="0" disallow="tram rail_urban rail rail_electric rail_fast ship container cable_car subway aircraft wheelchair scooter drone" speed="6.93" length="9.85" shape="6675.34,13333.86 6676.99,13332.05 6677.65,13329.98 6677.31,13327.67 6675.98,13325.11"/>
    </edge>
    <edge id=":11_7" function="internal">
        <lane id=":11_7_0" index="0" disallow="tram rail_urban rail rail_electric rail_fast ship container cable_car subway aircraft wheelchair scooter drone" speed="27.78" length="20.79" shape="6675.34,13333.86 6691.62,13320.89"/>
        <lane id=":11_7_1" index="1" disallow="tram rail_urban rail rail_electric rail_fast ship container cable_car subway aircraft wheelchair scooter drone" speed="27.78" length="20.79" shape="6677.35,13336.35 6693.59,13323.41"/>
    </edge>
    <edge id=":11_9" function="internal">
        <lane id=":11_9_0" index="0" disallow="tram rail_urban rail rail_electric rail_fast ship container cable_car subway aircraft wheelchair scooter drone" speed="5.96" length="16.23" shape="6677.35,13336.35 6682.34,13335.89 6685.17,13337.17 6685.84,13340.20 6684.35,13344.99"/>
    </edge>
    <edge id=":12_0" function="internal">
        <lane id=":12_0_0" index="0" disallow="tram rail_urban rail rail_electric rail_fast ship container cable_car subway aircraft wheelchair scooter drone" speed="6.37" length="9.05" shape="6827.87,13245.65 6826.19,13243.78 6824.35,13242.94 6822.34,13243.14 6820.16,13244.36"/>
    </edge>
    <edge id=":12_1" function="internal">
        <lane id=":12_1_0" index="0" disallow="tram rail_urban rail rail_electric rail_fast ship container cable_car subway aircraft wheelchair scooter drone" speed="27.78" length="30.69" shape="6827.87,13245.65 6810.15,13220.94"/>
        <lane id=":12_1_1" index="1" disallow="tram rail_urban rail rail_electric rail_fast ship container cable_car subway aircraft wheelchair scooter drone" speed="27.78" length="30.69" shape="6830.55,13243.91 6812.67,13218.96"/>
        <lane id=":12_1_2" index="2" disallow="tram rail_urban rail rail_electric rail_fast ship container cable_car subway aircraft wheelchair scooter drone" speed="27.78" length="30.69" shape="6833.24,13242.16 6815.19,13216.99"/>
    </edge>
    <edge id=":12_4" function="internal">
        <lane id=":12_4_0" index="0" disallow="tram rail_urban rail rail_electric rail_fast ship container cable_car subway aircraft wheelchair scooter drone" speed="6.39" length="18.98" shape="6833.24,13242.16 6833.31,13236.31 6835.15,13233.18 6838.76,13232.77 6844.14,13235.09"/>
    </edge>
    <edge id=":12_5" function="internal">
        <lane id=":12_5_0" index="0" disallow="tram rail_urban rail rail_electric rail_fast ship container cable_car subway aircraft wheelchair scooter drone" speed="27.78" length="32.60" shape="6830.61,13204.89 6836.36,13212.24 6840.51,13217.92 6844.42,13223.77 6849.51,13231.60"/>
        <lane id=":12_5_1" index="1" disallow="tram rail_urban rail rail_electric rail_fast ship container cable_car subway aircraft wheelchair scooter drone" speed="27.78" length="32.60" shape="6828.09,13206.87 6833.82,13214.18 6837.91,13219.78 6841.77,13225.55 6846.82,13233.35"/>
    </edge>
    <edge id=":12_7" function="internal">
        <lane id=":12_7_0" index="0" disallow="tram rail_urban rail rail_electric rail_fast ship container cable_car subway aircraft wheelchair scooter drone" speed="12.81" length="38.59" shape="6825.57,13208.84 6830.19,13217.26 6830.50,13225.56 6826.51,13233.75 6818.21,13241.82"/>
    </edge>
    <edge id=":12_8" function="internal">
        <lane id=":12_8_0" index="0" disallow="tram rail_urban rail rail_electric rail_fast ship container cable_car subway aircraft wheelchair scooter drone" speed="6.43" length="19.28" shape="6825.57,13208.84 6826.03,13214.77 6824.45,13218.11 6820.84,13218.85 6815.19,13216.99"/>
    </edge>
    <edge id=":12_9" function="internal">
        <lane id=":12_9_0" index="0" disallow="tram rail_urban rail rail_electric rail_fast ship container cable_car subway aircraft wheelchair scooter drone" speed="6.71" length="9.67" shape="6808.58,13229.28 6810.57,13227.28 6811.49,13225.23 6811.35,13223.11 6810.15,13220.94"/>
    </edge>
    <edge id=":12_10" function="internal">
        <lane id=":12_10_0" index="0" disallow="tram rail_urban rail rail_electric rail_fast ship container cable_car subway aircraft wheelchair scooter drone" speed="12.79" length="40.46" shape="6810.53,13231.82 6820.58,13225.24 6829.04,13223.22 6836.66,13226.31 6844.14,13235.09"/>
    </edge>
    <edge id=":12_11" function="internal">
        <lane id=":12_11_0" index="0" disallow="tram rail_urban rail rail_electric rail_fast ship container cable_car subway aircraft wheelchair scooter drone" speed="6.30" length="18.41" shape="6810.53,13231.82 6816.20,13231.44 6819.37,13232.98 6820.04,13236.44 6818.21,13241.82"/>
    </edge>
    <edge id=":13_0" function="internal">
        <lane id=":13_0_0" index="0" disallow="tram rail_urban rail rail_electric rail_fast ship container cable_car subway aircraft wheelchair scooter drone" speed="27.78" length="26.62" shape="5786.05,13532.92 5770.58,13511.35"/>
        <lane id=":13_0_1" index="1" disallow="tram rail_urban rail rail_electric rail_fast ship container cable_car subway aircraft wheelchair scooter drone" speed="27.78" length="26.62" shape="5788.70,13531.13 5773.15,13509.43"/>
    </edge>
    <edge id=":13_2" function="internal">
        <lane id=":13_2_0" index="0" disallow="tram rail_urban rail rail_electric rail_fast ship container cable_car subway aircraft wheelchair scooter drone" speed="11.99" length="29.73" shape="5791.35,13529.33 5788.11,13522.51 5787.80,13515.83 5790.41,13509.30 5795.95,13502.91"/>
    </edge>
    <edge id=":13_3" function="internal">
        <lane id=":13_3_0" index="0" disallow="tram rail_urban rail rail_electric rail_fast ship container cable_car subway aircraft wheelchair scooter drone" speed="4.76" length="9.55" shape="5791.35,13529.33 5791.33,13526.39 5792.22,13524.79 5794.03,13524.55 5796.76,13525.67"/>
    </edge>
    <edge id=":13_4" function="internal">
        <lane id=":13_4_0" index="0" disallow="tram rail_urban rail rail_electric rail_fast ship container cable_car subway aircraft wheelchair scooter drone" speed="7.43" length="10.87" shape="5804.67,13512.57 5802.39,13515.05 5801.20,13517.46 5801.09,13519.81 5802.06,13522.08"/>
    </edge>
    <edge id=":13_5" function="internal">
        <lane id=":13_5_0" index="0" disallow="tram rail_urban rail rail_electric rail_fast ship container cable_car subway aircraft wheelchair scooter drone" speed="11.31" length="31.38" shape="5802.52,13510.20 5795.26,13515.02 5788.37,13516.18 5781.86,13513.68 5775.71,13507.52"/>
    </edge>
    <edge id=":13_6" function="internal">
        <lane id=":13_6_0" index="0" disallow="tram rail_urban rail rail_electric rail_fast ship container cable_car subway aircraft wheelchair scooter drone" speed="5.64" length="14.34" shape="5802.52,13510.20 5798.15,13510.84 5795.59,13509.84 5794.86,13507.20 5795.95,13502.91"/>
    </edge>
    <edge id=":13_7" function="internal">
        <lane id=":13_7_0" index="0" disallow="tram rail_urban rail rail_electric rail_fast ship container cable_car subway aircraft wheelchair scooter drone" speed="6.34" length="9.06" shape="5786.05,13499.81 5787.84,13501.56 5789.74,13502.27 5791.72,13501.93 5793.80,13500.53"/>
    </edge>
    <edge id=":13_8" function="internal">
        <lane id=":13_8_0" index="0" disallow="tram rail_urban rail rail_electric rail_fast ship container cable_car subway aircraft wheelchair scooter drone" speed="27.78" length="27.28" shape="5786.05,13499.81 5802.06,13522.08"/>
        <lane id=":13_8_1" index="1" disallow="tram rail_urban rail rail_electric rail_fast ship container cable_car subway aircraft wheelchair scooter drone" speed="27.78" length="27.28" shape="5783.48,13501.72 5799.41,13523.87"/>
        <lane id=":13_8_2" index="2" disallow="tram rail_urban rail rail_electric rail_fast ship container cable_car subway aircraft wheelchair scooter drone" speed="27.78" length="27.28" shape="5780.92,13503.63 5796.76,13525.67"/>
    </edge>
    <edge id=":13_11" function="internal">
        <lane id=":13_11_0" index="0" disallow="tram rail_urban rail rail_electric rail_fast ship container cable_car subway aircraft wheelchair scooter drone" speed="4.75" length="9.49" shape="5780.92,13503.63 5781.07,13506.56 5780.26,13508.18 5778.47,13508.50 5775.71,13507.52"/>
    </edge>
    <edge id=":14_0" function="internal">
        <lane id=":14_0_0" index="0" disallow="tram rail_urban rail rail_electric rail_fast ship container cable_car subway aircraft wheelchair scooter drone" speed="6.32" length="9.05" shape="6091.42,13264.21 6089.65,13262.43 6087.78,13261.70 6085.79,13262.02 6083.70,13263.41"/>
    </edge>
    <edge id=":14_1" function="internal">
        <lane id=":14_1_0" index="0" disallow="tram rail_urban rail rail_electric rail_fast ship container cable_car subway aircraft wheelchair scooter drone" speed="27.78" length="32.78" shape="6091.42,13264.21 6072.65,13237.35"/>
    </edge>
    <edge id=":14_2" function="internal">
        <lane id=":14_2_0" index="0" disallow="tram rail_urban rail rail_electric rail_fast ship container cable_car subway aircraft wheelchair scooter drone" speed="12.55" length="33.64" shape="6094.01,13262.33 6091.42,13255.21 6091.36,13246.03 6093.52,13237.06 6097.59,13230.58"/>
    </edge>
    <edge id=":14_3" function="internal">
        <lane id=":14_3_0" index="0" disallow="tram rail_urban rail rail_electric rail_fast ship container cable_car subway aircraft wheelchair scooter drone" speed="6.10" length="17.11" shape="6094.01,13262.33 6093.79,13257.06 6095.29,13254.15 6098.52,13253.61 6103.47,13255.43"/>
    </edge>
    <edge id=":14_4" function="internal">
        <lane id=":14_4_0" index="0" disallow="tram rail_urban rail rail_electric rail_fast ship container cable_car subway aircraft wheelchair scooter drone" speed="8.11" length="13.31" shape="6107.71,13241.71 6105.30,13244.57 6104.22,13247.50 6104.48,13250.49 6106.06,13253.55"/>
    </edge>
    <edge id=":14_5" function="internal">
        <lane id=":14_5_0" index="0" disallow="tram rail_urban rail rail_electric rail_fast ship container cable_car subway aircraft wheelchair scooter drone" speed="22.22" length="32.37" shape="6107.71,13241.71 6083.70,13263.41"/>
    </edge>
    <edge id=":14_6" function="internal">
        <lane id=":14_6_0" index="0" disallow="tram rail_urban rail rail_electric rail_fast ship container cable_car subway aircraft wheelchair scooter drone" speed="11.28" length="32.75" shape="6105.56,13239.34 6098.77,13242.33 6089.83,13242.50 6081.19,13240.14 6075.32,13235.58"/>
    </edge>
    <edge id=":14_7" function="internal">
        <lane id=":14_7_0" index="0" disallow="tram rail_urban rail rail_electric rail_fast ship container cable_car subway aircraft wheelchair scooter drone" speed="6.12" length="17.30" shape="6105.56,13239.34 6100.28,13240.14 6097.20,13238.94 6096.30,13235.75 6097.59,13230.58"/>
    </edge>
    <edge id=":14_8" function="internal">
        <lane id=":14_8_0" index="0" disallow="tram rail_urban rail rail_electric rail_fast ship container cable_car subway aircraft wheelchair scooter drone" speed="6.20" length="9.05" shape="6087.86,13227.27 6089.55,13229.16 6091.38,13229.94 6093.34,13229.63 6095.44,13228.21"/>
    </edge>
    <edge id=":14_9" function="internal">
        <lane id=":14_9_0" index="0" disallow="tram rail_urban rail rail_electric rail_fast ship container cable_car subway aircraft wheelchair scooter drone" speed="27.78" length="31.97" shape="6087.86,13227.27 6106.06,13253.55"/>
    </edge>
    <edge id=":14_10" function="internal">
        <lane id=":14_10_0" index="0" disallow="tram rail_urban rail rail_electric rail_fast ship container cable_car subway aircraft wheelchair scooter drone" speed="12.79" length="33.76" shape="6085.19,13229.04 6087.61,13236.34 6087.65,13245.64 6085.55,13254.63 6081.57,13261.02"/>
    </edge>
    <edge id=":14_11" function="internal">
        <lane id=":14_11_0" index="0" disallow="tram rail_urban rail rail_electric rail_fast ship container cable_car subway aircraft wheelchair scooter drone" speed="6.12" length="17.30" shape="6085.19,13229.04 6085.18,13234.37 6083.52,13237.24 6080.24,13237.65 6075.32,13235.58"/>
    </edge>
    <edge id=":14_12" function="internal">
        <lane id=":14_12_0" index="0" disallow="tram rail_urban rail rail_electric rail_fast ship container cable_car subway aircraft wheelchair scooter drone" speed="8.38" length="13.88" shape="6071.59,13249.85 6073.85,13247.09 6074.78,13244.09 6074.38,13240.84 6072.65,13237.35"/>
    </edge>
    <edge id=":14_13" function="internal">
        <lane id=":14_13_0" index="0" disallow="tram rail_urban rail rail_electric rail_fast ship container cable_car subway aircraft wheelchair scooter drone" speed="22.22" length="32.21" shape="6071.59,13249.85 6095.44,13228.21"/>
    </edge>
    <edge id=":14_14" function="internal">
        <lane id=":14_14_0" index="0" disallow="tram rail_urban rail rail_electric rail_fast ship container cable_car subway aircraft wheelchair scooter drone" speed="11.37" length="32.11" shape="6073.72,13252.24 6080.42,13249.22 6089.11,13248.91 6097.55,13251.07 6103.47,13255.43"/>
    </edge>
    <edge id=":14_15" function="internal">
        <lane id=":14_15_0" index="0" disallow="tram rail_urban rail rail_electric rail_fast ship container cable_car subway aircraft wheelchair scooter drone" speed="6.11" length="17.20" shape="6073.72,13252.24 6078.98,13251.49 6082.04,13252.71 6082.90,13255.89 6081.57,13261.02"/>
    </edge>
    <edge id=":15_0" function="internal">