<?xml version="1.0" encoding="UTF-8"?>

<!-- generated on 2025-08-07 13:55:01.265031 by randomTrips.py v1_20_0+0002-343658e7c64
<configuration>
    <net-file value="traffic_simulation\maps\hangzhou\hangzhou.net.xml"/>
    <route-file value="traffic_simulation\maps\hangzhou\hangzhou_2440.rou.xml"/>
    <length value="True"/>
    <end value="1800.0"/>
    <period value="0.738"/>
</configuration>
-->

<!-- generated on 2025-08-07 13:55:01 by Eclipse SUMO duarouter Version 1.20.0
<configuration xmlns:xsi="http://www.w3.org/2001/XMLSchema-instance" xsi:noNamespaceSchemaLocation="http://sumo.dlr.de/xsd/duarouterConfiguration.xsd">

    <input>
        <net-file value="traffic_simulation\maps\hangzhou\hangzhou.net.xml"/>
        <route-files value="trips.trips.xml"/>
    </input>

    <output>
        <output-file value="traffic_simulation\maps\hangzhou\hangzhou_2440.rou.xml"/>
        <alternatives-output value="NUL"/>
    </output>

    <time>
        <begin value="0"/>
        <end value="1800.0"/>
    </time>

    <report>
        <no-warnings value="true"/>
        <ignore-errors value="true"/>
        <no-step-log value="true"/>
    </report>

</configuration>
-->

<routes xmlns:xsi="http://www.w3.org/2001/XMLSchema-instance" xsi:noNamespaceSchemaLocation="http://sumo.dlr.de/xsd/routes_file.xsd">
    <vType id="ambulance" vClass="passenger" guiShape="emergency" color="0,255,0" />
    <vehicle id="0" depart="0.00">
        <route edges="557050557#0 157967586#2 4375946#1 -4375945#5"/>
    </vehicle>
    <vehicle id="1" depart="0.74">
        <route edges="154262322#1 1372032704#1 1363867492#0 384668307 384668304 1363867491#4 1415317945#0"/>
    </vehicle>
    <vehicle id="2" depart="1.48">
        <route edges="587820064#0 595993913#0 587820062 1238987830#1 1372032743#1 E3 572782809#1"/>
    </vehicle>
    <vehicle id="3" depart="2.21">
        <route edges="996851888#1 587820064#3 594790657#2 1363867508#0"/>
    </vehicle>
    <vehicle id="4" depart="2.95">
        <route edges="336821424#2 1372032699 336821421#0 587820064#0 587820064#3 581139433#0 -4375945#5"/>
    </vehicle>
    <vehicle id="5" depart="3.69">
        <route edges="1415317945#0 384668302 384668305 384668307"/>
    </vehicle>
    <vehicle id="6" depart="4.43">
        <route edges="-4375945#5 996851888#1 595993913#0 587820062 1238987830#1 1372032743#1"/>
    </vehicle>
    <vehicle id="7" depart="5.17">
        <route edges="572782809#1 605330157#2 51718751#1 4375945#2 4375945#5"/>
    </vehicle>
    <vehicle id="8" depart="5.90">
        <route edges="1415317945#0 384668302 1415317946#0 587820065 51718751#5"/>
    </vehicle>
    <vehicle id="9" depart="6.64">
        <route edges="595993913#0 587820064#0 996851890#0 -4375945#2"/>
    </vehicle>
    <vehicle id="10" depart="7.38">
        <route edges="595993911#1 157967584#0 184451527 572782809#1"/>
    </vehicle>
    <vehicle id="11" depart="8.12">
        <route edges="184451527 E2 154262322#1 1372032704#1"/>
    </vehicle>
    <vehicle id="12" depart="8.86">
        <route edges="E2 336821424#2 1372032699 979747412#5 605330157#2 157967586#2"/>
    </vehicle>
    <vehicle id="13" depart="9.59">
        <route edges="1363867508#0"/>
    </vehicle>
    <vehicle id="14" depart="10.33">
        <route edges="667351644 594790657#2 1415317945#0 553240095#1"/>
    </vehicle>
    <vehicle id="15" depart="11.07">
        <route edges="595993913#0 587820062"/>
    </vehicle>
    <vehicle id="16" depart="11.81">
        <route edges="4375946#1 581139433#2 557050557#0 157967584#0 184451527 E4"/>
    </vehicle>
    <vehicle id="17" depart="12.55">
        <route edges="329618112#0 336821424#2 1372032699 979747412#5 605330157#2 157967586#2 4375946#1"/>
    </vehicle>
    <vehicle id="18" depart="13.28">
        <route edges="605330157#2 51718751#1 51718751#5 587820064#0 553240096#4"/>
    </vehicle>
    <vehicle id="19" depart="14.02">
        <route edges="979747410#1 979747412#5 605330157#2 51718751#1"/>
    </vehicle>
    <vehicle id="20" depart="14.76">
        <route edges="583423521#0 557050557#0 157967584#0 979747410#1 1238987830#1"/>
    </vehicle>
    <vehicle id="21" depart="15.50">
        <route edges="1415317946#0 587820062 1238987830#1 1372032743#1 154262322#1"/>
    </vehicle>
    <vehicle id="22" depart="16.24">
        <route edges="1363867493 384668307 384668304 1363867491#4 1415317945#0"/>
    </vehicle>
    <vehicle id="23" depart="16.97">
        <route edges="1364473310 14275978#0"/>
    </vehicle>
    <vehicle id="24" depart="17.71">
        <route edges="557050557#0 157967584#0 184451527"/>
    </vehicle>
    <vehicle id="25" depart="18.45">
        <route edges="326085079 329618112#0 1415317940#1"/>
    </vehicle>
    <vehicle id="26" depart="19.19">
        <route edges="154262322#1 329618112#0 E3 E2"/>
    </vehicle>
    <vehicle id="27" depart="19.93">
        <route edges="557050557#0 51718751#1 51718751#5 587820064#0 553240096#4"/>
    </vehicle>
    <vehicle id="28" depart="20.66">
        <route edges="1372032740#1 1372032704#1 1363867492#0 384668307 1415317946#0 587820062"/>
    </vehicle>
    <vehicle id="29" depart="21.40">
        <route edges="1372032704#1 294207962#1"/>
    </vehicle>
    <vehicle id="30" depart="22.14">
        <route edges="E8 581139433#0 581139433#2 557050557#0"/>
    </vehicle>
    <vehicle id="31" depart="22.88">
        <route edges="4880748#1 595993913#0 587820062 1238987830#1 1372032743#1 E3 572782809#1"/>
    </vehicle>
    <vehicle id="32" depart="23.62">
        <route edges="667351644 4880748#1 587820064#3"/>
    </vehicle>
    <vehicle id="33" depart="24.35">
        <route edges="1415317946#0 587820062 1238987830#1"/>
    </vehicle>
    <vehicle id="34" depart="25.09">
        <route edges="157967586#2 4375946#1 667351644 594790657#2 1415317945#0 384668302 384668305 14275978#0"/>
    </vehicle>
    <vehicle id="35" depart="25.83">
        <route edges="1415317945#0 384668302 1415317946#0 587820062 1238987830#1 1372032743#1 E3 E2"/>
    </vehicle>
    <vehicle id="36" depart="26.57">
        <route edges="979747412#5 605330157#2 157967586#2"/>
    </vehicle>
    <vehicle id="37" depart="27.31">
        <route edges="572782809#1 979747410#1 1364473310 384668306 1372032740#1 329618112#0"/>
    </vehicle>
    <vehicle id="38" depart="28.04">
        <route edges="996851890#0 996851888#1 553240096#4 384668302 384668304"/>
    </vehicle>
    <vehicle id="39" depart="28.78">
        <route edges="14275978#0 336821421#0 1415317947#5 1415317946#0"/>
    </vehicle>
    <vehicle id="40" depart="29.52">
        <route edges="51718751#1 51718751#5 1415317947#5"/>
    </vehicle>
    <vehicle id="41" depart="30.26">
        <route edges="532719562#0 572782809#1 979747410#1 979747412#5"/>
    </vehicle>
    <vehicle id="42" depart="31.00">
        <route edges="336821421#0 587820062 1238987830#1 1372032743#1 1415317940#1"/>
    </vehicle>
    <vehicle id="43" depart="31.73">
        <route edges="E9 4375946#1 667351644 594790657#2 1415317945#0 384668302 384668305 384668307"/>
    </vehicle>
    <vehicle id="44" depart="32.47">
        <route edges="1363867508#0 594790657#2 1415317945#0 1363867491#4"/>
    </vehicle>
    <vehicle id="45" depart="33.21">
        <route edges="1364473310 384668307 384668304 1363867491#4 553662487#1"/>
    </vehicle>
    <vehicle id="46" depart="33.95">
        <route edges="594790657#2 1415317945#0 384668302 1415317946#0 587820062 1238987830#1 1372032743#1 336821424#2"/>
    </vehicle>
    <vehicle id="47" depart="34.69">
        <route edges="1363867491#4 1415317945#0 384668302 384668305 384668306 294207962#1"/>
    </vehicle>
    <vehicle id="48" depart="35.42">
        <route edges="E9 557050557#0 51718751#1 4375945#2"/>
    </vehicle>
    <vehicle id="49" depart="36.16">
        <route edges="E3 572782809#1 605330157#2 157967586#2 4375946#1 667351644"/>
    </vehicle>
    <vehicle id="50" depart="36.90">
        <route edges="-4375945#2 595993911#1 157967586#2 4375946#1 581139433#2"/>
    </vehicle>
    <vehicle id="51" depart="37.64">
        <route edges="581139433#0 -4375945#5 4375945#5"/>
    </vehicle>
    <vehicle id="52" depart="38.38">
        <route edges="154262322#1 1372032704#1 1363867492#0 14275978#0 979747412#5 605330157#2 157967586#2 557050557#0"/>
    </vehicle>
    <vehicle id="53" depart="39.11">
        <route edges="1364473310 14275978#0 1238987830#1 1372032743#1 336821424#2"/>
    </vehicle>
    <vehicle id="54" depart="39.85">
        <route edges="384668305 14275978#0 1238987830#1 1372032743#1 E3"/>
    </vehicle>
    <vehicle id="55" depart="40.59">
        <route edges="979747412#5 605330157#2 51718751#1 51718751#5 1415317947#5"/>
    </vehicle>
    <vehicle id="56" depart="41.33">
        <route edges="384668307 384668305 384668306 1372032740#1"/>
    </vehicle>
    <vehicle id="57" depart="42.07">
        <route edges="996851890#0 -4375945#2 595993911#1 157967584#0 979747410#1"/>
    </vehicle>
    <vehicle id="58" depart="42.80">
        <route edges="157967584#0 605330157#2 157967586#2 557050557#0"/>
    </vehicle>
    <vehicle id="59" depart="43.54">
        <route edges="553240096#4 384668302 384668305 384668306 1372032740#1 1372032704#1"/>
    </vehicle>
    <vehicle id="60" depart="44.28">
        <route edges="587820065 4375945#2 4375945#5"/>
    </vehicle>
    <vehicle id="61" depart="45.02">
        <route edges="593992378#0 1415317945#0 384668302 1415317946#0 587820065 4375945#2"/>
    </vehicle>
    <vehicle id="62" depart="45.76">
        <route edges="-4375945#2 595993911#1 157967586#2"/>
    </vehicle>
    <vehicle id="63" depart="46.49">
        <route edges="-4375945#5 4375945#5 581139433#2 E10"/>
    </vehicle>
    <vehicle id="64" depart="47.23">
        <route edges="979747412#5 605330157#2"/>
    </vehicle>
    <vehicle id="65" depart="47.97">
        <route edges="157967586#2 4375946#1 667351644 594790657#2 1415317945#0 1363867491#4"/>
    </vehicle>
    <vehicle id="66" depart="48.71">
        <route edges="979747412#5 184451527 E2"/>
    </vehicle>
    <vehicle id="67" depart="49.45">
        <route edges="1363867493 384668306"/>
    </vehicle>
    <vehicle id="68" depart="50.18">
        <route edges="1363867492#0 14275978#0 336821421#0 587820064#0 587820064#3"/>
    </vehicle>
    <vehicle id="69" depart="50.92">
        <route edges="587820065 51718751#5 587820062 1238987830#1 1372032699"/>
    </vehicle>
    <vehicle id="70" depart="51.66">
        <route edges="384668306 1363867492#0 14275978#0 979747412#5 605330157#2 157967586#2 4375946#1"/>
    </vehicle>
    <vehicle id="71" depart="52.40">
        <route edges="14275978#0 979747412#5 979747410#1"/>
    </vehicle>
    <vehicle id="72" depart="53.14">
        <route edges="336821424#2 1372032743#1 1415317940#1"/>
    </vehicle>
    <vehicle id="73" depart="53.87">
        <route edges="4375946#1 667351644 4880748#1 595993913#0 587820062"/>
    </vehicle>
    <vehicle id="74" depart="54.61">
        <route edges="1372032743#1 336821424#2 1372032699 979747412#5 605330157#2 157967584#0"/>
    </vehicle>
    <vehicle id="75" depart="55.35">
        <route edges="E9 557050557#0"/>
    </vehicle>
    <vehicle id="76" depart="56.09">
        <route edges="384668302 1415317946#0 587820065 4375945#2"/>
    </vehicle>
    <vehicle id="77" depart="56.83">
        <route edges="1371868318#2 1363867492#0 384668307 384668304 1363867491#4 1415317945#0"/>
    </vehicle>
    <vehicle id="78" depart="57.56">
        <route edges="184451527 572782809#1 605330157#2 51718751#1 51718751#5"/>
    </vehicle>
    <vehicle id="79" depart="58.30">
        <route edges="1415317946#0 587820064#0 587820064#3 594790657#2 1415317945#0"/>
    </vehicle>
    <vehicle id="80" depart="59.04">
        <route edges="1363867492#0 14275978#0 979747412#5 605330157#2 157967586#2 557050557#0"/>
    </vehicle>
    <vehicle id="81" depart="59.78">
        <route edges="1415317946#0 587820064#0 996851890#0 996851888#1"/>
    </vehicle>
    <vehicle id="82" depart="60.52">
        <route edges="979747410#1 1364473310 384668306 1363867492#0"/>
    </vehicle>
    <vehicle id="83" depart="61.25">
        <route edges="1415317947#5 384668305 14275978#0 979747412#5 184451527 572782807#3"/>
    </vehicle>
    <vehicle id="84" depart="61.99">
        <route edges="1415317945#0 384668302 384668305 384668306 1372032703#1"/>
    </vehicle>
    <vehicle id="85" depart="62.73">
        <route edges="E1 E2 336821424#2 1372032699 336821421#0 587820064#0 587820064#3 4880748#1"/>
    </vehicle>
    <vehicle id="86" depart="63.47">
        <route edges="384668306 1363867492#0 384668307 1415317946#0 587820065"/>
    </vehicle>
    <vehicle id="87" depart="64.21">
        <route edges="595993913#0 587820062 1238987830#1 1372032741"/>
    </vehicle>
    <vehicle id="88" depart="64.94">
        <route edges="1363867508#0 4880748#1 595993913#0 587820062 1238987830#1 1372032743#1 336821424#2"/>
    </vehicle>
    <vehicle id="89" depart="65.68">
        <route edges="336821424#2 1372032699 336821421#0 1415317947#5 384668305"/>
    </vehicle>
    <vehicle id="90" depart="66.42">
        <route edges="587820064#0 595993913#0 587820062 1238987830#1 1372032743#1 E3 572782809#1"/>
    </vehicle>
    <vehicle id="91" depart="67.16">
        <route edges="E5 979747410#1 336821421#0 587820064#0 587820064#3 594790657#2 1363867508#0"/>
    </vehicle>
    <vehicle id="92" depart="67.90">
        <route edges="336821421#0 587820065 595993911#1 157967586#2"/>
    </vehicle>
    <vehicle id="93" depart="68.63">
        <route edges="979747410#1 336821421#0 1415317947#5 1415317946#0"/>
    </vehicle>
    <vehicle id="94" depart="69.37">
        <route edges="1372032741 1363867492#0 384668307 384668304"/>
    </vehicle>
    <vehicle id="95" depart="70.11">
        <route edges="336821424#2 1372032699 1364473310 14275978#0"/>
    </vehicle>
    <vehicle id="96" depart="70.85">
        <route edges="1415317947#5 1415317946#0 587820064#0 996851890#0"/>
    </vehicle>
    <vehicle id="97" depart="71.59">
        <route edges="384668304 384668302 384668305 14275978#0 979747412#5 979747410#1"/>
    </vehicle>
    <vehicle id="98" depart="72.32">
        <route edges="4880748#1 553240096#4 1363867491#4"/>
    </vehicle>
    <vehicle id="99" depart="73.06">
        <route edges="E9 557050557#0 157967584#0 605330157#2"/>
    </vehicle>
    <vehicle id="100" depart="73.80">
        <route edges="E3 572782809#1 979747410#1 336821421#0 587820064#0 996851890#0"/>
    </vehicle>
    <vehicle id="101" depart="74.54">
        <route edges="667351644 594790657#2 1415317945#0 384668302 384668305 384668306 1372032740#1 1372032739#1"/>
    </vehicle>
    <vehicle id="102" depart="75.28">
        <route edges="384668307 1415317946#0 587820062 1238987830#1 1372032743#1 1415317940#1"/>
    </vehicle>
    <vehicle id="103" depart="76.01">
        <route edges="336821421#0 1415317947#5 384668304 1363867491#4"/>
    </vehicle>
    <vehicle id="104" depart="76.75">
        <route edges="329618112#0 336821424#2 1372032699 979747412#5 E6"/>
    </vehicle>
    <vehicle id="105" depart="77.49">
        <route edges="14275978#0 336821421#0 587820065"/>
    </vehicle>
    <vehicle id="106" depart="78.23">
        <route edges="384668305 14275978#0 1238987830#1 1372032743#1 336821424#2"/>
    </vehicle>
    <vehicle id="107" depart="78.97">
        <route edges="E2 336821424#2 1372032699 336821421#0 587820064#0 587820064#3 594790657#2 E7"/>
    </vehicle>
    <vehicle id="108" depart="79.70">
        <route edges="4880748#1 587820064#3 581139433#0 581139433#2"/>
    </vehicle>
    <vehicle id="109" depart="80.44">
        <route edges="1372032704#1 1363867492#0 14275978#0 979747412#5 605330157#2 157967584#0"/>
    </vehicle>
    <vehicle id="110" depart="81.18">
        <route edges="E3 572782809#1 605330157#2 51718751#1 51718751#5"/>
    </vehicle>
    <vehicle id="111" depart="81.92">
        <route edges="4880748#1 595993913#0 587820064#0"/>
    </vehicle>
    <vehicle id="112" depart="82.66">
        <route edges="1363867491#4 1415317945#0 384668302 1415317946#0 587820065 51718751#5"/>
    </vehicle>
    <vehicle id="113" depart="83.39">
        <route edges="4375945#2 4375945#5 667351644"/>
    </vehicle>
    <vehicle id="114" depart="84.13">
        <route edges="1372032704#1 1372032740#1 329618112#0 E3"/>
    </vehicle>
    <vehicle id="115" depart="84.87">
        <route edges="1363867493 14275978#0 1238987830#1 1372032741"/>
    </vehicle>
    <vehicle id="116" depart="85.61">
        <route edges="553240095#1 595993913#0 587820062 1238987830#1 1372032743#1 E3 572782809#1"/>
    </vehicle>
    <vehicle id="117" depart="86.35">
        <route edges="1415317946#0 587820062 1238987830#1 1372032699"/>
    </vehicle>
    <vehicle id="118" depart="87.08">
        <route edges="996851888#1 553240096#4 384668302 1415317946#0"/>
    </vehicle>
    <vehicle id="119" depart="87.82">
        <route edges="553240095#1 587820064#3 594790657#2 553662487#1"/>
    </vehicle>
    <vehicle id="120" depart="88.56">
        <route edges="336821424#2 1372032699 336821421#0 587820065 51718751#5"/>
    </vehicle>
    <vehicle id="121" depart="89.30">
        <route edges="4375945#5 581139433#2 E10"/>
    </vehicle>
    <vehicle id="122" depart="90.04">
        <route edges="1372032743#1 336821424#2 1372032699 336821421#0 587820064#0 587820064#3 581139433#0 581139433#2"/>
    </vehicle>
    <vehicle id="123" depart="90.77">
        <route edges="1415317947#5 384668305 384668306 1372032740#1 329618112#0"/>
    </vehicle>
    <vehicle id="124" depart="91.51">
        <route edges="572782809#1 605330157#2 157967584#0"/>
    </vehicle>
    <vehicle id="125" depart="92.25">
        <route edges="157967586#2 4375946#1 667351644 4880748#1 595993913#0 587820064#0"/>
    </vehicle>
    <vehicle id="126" depart="92.99">
        <route edges="1363867492#0 384668307 384668304"/>
    </vehicle>
    <vehicle id="127" depart="93.73">
        <route edges="E9 4375946#1 667351644 594790657#2 E7"/>
    </vehicle>
    <vehicle id="128" depart="94.46">
        <route edges="1363867492#0 14275978#0 1238987830#1 1372032743#1 1415317940#1"/>
    </vehicle>
    <vehicle id="129" depart="95.20">
        <route edges="14275978#0 979747412#5 605330157#2 157967586#2 E10"/>
    </vehicle>
    <vehicle id="130" depart="95.94">
        <route edges="979747412#5 979747410#1"/>
    </vehicle>
    <vehicle id="131" depart="96.68">
        <route edges="326085079 1372032704#1"/>
    </vehicle>
    <vehicle id="132" depart="97.42">
        <route edges="605330157#2 157967584#0 184451527 572782809#1"/>
    </vehicle>
    <vehicle id="133" depart="98.15">
        <route edges="553240096#4 1363867491#4 E7"/>
    </vehicle>
    <vehicle id="134" depart="98.89">
        <route edges="572782809#1 605330157#2 51718751#1 4375945#2 -4375945#2"/>
    </vehicle>
    <vehicle id="135" depart="99.63">
        <route edges="595993913#0 587820065 595993911#1 157967584#0"/>
    </vehicle>
    <vehicle id="136" depart="100.37">
        <route edges="572782809#1 184451527 E2"/>
    </vehicle>
    <vehicle id="137" depart="101.11">
        <route edges="1372032699"/>
    </vehicle>
    <vehicle id="138" depart="101.84">
        <route edges="1364473310 14275978#0 979747412#5 605330157#2 157967586#2 4375946#1"/>
    </vehicle>
    <vehicle id="139" depart="102.58">
        <route edges="154262322#1 1372032704#1 1363867492#0 384668307 384668304 553240095#1"/>
    </vehicle>
    <vehicle id="140" depart="103.32">
        <route edges="587820062 1238987830#1 1372032743#1"/>
    </vehicle>
    <vehicle id="141" depart="104.06">
        <route edges="557050557#0 51718751#1 51718751#5 1415317947#5"/>
    </vehicle>
    <vehicle id="142" depart="104.80">
        <route edges="384668307 384668304 553240095#1 996851890#0 996851888#1"/>
    </vehicle>
    <vehicle id="143" depart="105.53">
        <route edges="667351644 594790657#2 1363867508#0"/>
    </vehicle>
    <vehicle id="144" depart="106.27">
        <route edges="336821424#2 1372032699 1364473310 14275978#0"/>
    </vehicle>
    <vehicle id="145" depart="107.01">
        <route edges="-4375945#2 51718751#5 587820064#0 587820064#3"/>
    </vehicle>
    <vehicle id="146" depart="107.75">
        <route edges="557050557#0 51718751#1 51718751#5 1415317947#5"/>
    </vehicle>
    <vehicle id="147" depart="108.49">
        <route edges="587820064#3 581139433#0 581139433#2 4375946#1"/>
    </vehicle>
    <vehicle id="148" depart="109.22">
        <route edges="384668302 1415317946#0 587820064#0 996851890#0 -4375945#2"/>
    </vehicle>
    <vehicle id="149" depart="109.96">
        <route edges="1363867492#0 14275978#0 979747412#5"/>
    </vehicle>
    <vehicle id="150" depart="110.70">
        <route edges="996851890#0 4375945#5"/>
    </vehicle>
    <vehicle id="151" depart="111.44">
        <route edges="605330157#2 51718751#1 51718751#5"/>
    </vehicle>
    <vehicle id="152" depart="112.18">
        <route edges="1372032703#1 1372032699"/>
    </vehicle>
    <vehicle id="153" depart="112.91">
        <route edges="157967586#2 4375946#1 -4375945#5 996851888#1"/>
    </vehicle>
    <vehicle id="154" depart="113.65">
        <route edges="594790657#2 1363867508#0 581139433#0 667351644"/>
    </vehicle>
    <vehicle id="155" depart="114.39">
        <route edges="996851888#1 595993913#0 587820062 1238987830#1 1372032743#1 1415317940#1"/>
    </vehicle>
    <vehicle id="156" depart="115.13">
        <route edges="1415317947#5 384668305 14275978#0 1364473310"/>
    </vehicle>
    <vehicle id="157" depart="115.87">
        <route edges="593992378#0 1363867508#0 4880748#1 595993913#0 587820062 979747412#5"/>
    </vehicle>
    <vehicle id="158" depart="116.60">
        <route edges="336821424#0 336821424#2 1372032699 336821421#0 1415317947#5 384668304 1363867491#4 553662487#1"/>
    </vehicle>
    <vehicle id="159" depart="117.34">
        <route edges="1372032704#1 1363867492#0 384668307 384668304 1363867491#4 1363867508#0 581139433#0 581139433#2 E10"/>
    </vehicle>
    <vehicle id="160" depart="118.08">
        <route edges="979747410#1 1238987830#1 1372032743#1 E3 E4"/>
    </vehicle>
    <vehicle id="161" depart="118.82">
        <route edges="595993913#0 587820062 979747412#5"/>
    </vehicle>
    <vehicle id="162" depart="119.56">
        <route edges="-4375945#5 996851888#1 595993913#0 587820062"/>
    </vehicle>
    <vehicle id="163" depart="120.29">
        <route edges="157967586#2 E10"/>
    </vehicle>
    <vehicle id="164" depart="121.03">
        <route edges="595993911#1 157967584#0 979747410#1"/>
    </vehicle>
    <vehicle id="165" depart="121.77">
        <route edges="595993913#0 1415317947#5 384668305 14275978#0"/>
    </vehicle>
    <vehicle id="166" depart="122.51">
        <route edges="593992378#0 1363867508#0 4880748#1 595993913#0 587820062 1364473310"/>
    </vehicle>
    <vehicle id="167" depart="123.25">
        <route edges="979747412#5 605330157#2 157967586#2 4375946#1 667351644"/>
    </vehicle>
    <vehicle id="168" depart="123.98">
        <route edges="1415317945#0 553240095#1 595993913#0"/>
    </vehicle>
    <vehicle id="169" depart="124.72">
        <route edges="384668305 14275978#0 979747412#5 605330157#2 157967584#0"/>
    </vehicle>
    <vehicle id="170" depart="125.46">
        <route edges="594790657#2 1415317945#0"/>
    </vehicle>
    <vehicle id="171" depart="126.20">
        <route edges="-4375945#5 996851888#1 595993913#0 587820062 1238987830#1 1372032741"/>
    </vehicle>
    <vehicle id="172" depart="126.94">
        <route edges="157967586#2 557050557#0 157967584#0 979747410#1"/>
    </vehicle>
    <vehicle id="173" depart="127.67">
        <route edges="E3 E2 154262322#1"/>
    </vehicle>
    <vehicle id="174" depart="128.41">
        <route edges="557050557#0 157967584#0 979747410#1 1364473310 384668306 1372032740#1 329618115"/>
    </vehicle>
    <vehicle id="175" depart="129.15">
        <route edges="E5 605330157#2 51718751#1 4375945#2 4375945#5"/>
    </vehicle>
    <vehicle id="176" depart="129.89">
        <route edges="E11 1415317945#0 384668302 384668305 14275978#0 1364473310"/>
    </vehicle>
    <vehicle id="177" depart="130.63">
        <route edges="E3 E2 336821424#2 1372032741 1372032740#1"/>
    </vehicle>
    <vehicle id="178" depart="131.36">
        <route edges="E3 572782809#1 979747410#1 1364473310 14275978#0"/>
    </vehicle>
    <vehicle id="179" depart="132.10">
        <route edges="1364473310 14275978#0 1238987830#1 1372032743#1 336821424#2"/>
    </vehicle>
    <vehicle id="180" depart="132.84">
        <route edges="587820064#0 595993913#0 587820065 595993911#1 157967586#2"/>
    </vehicle>
    <vehicle id="181" depart="133.58">
        <route edges="553240096#4 1363867491#4 1363867508#0 420013393#0"/>
    </vehicle>
    <vehicle id="182" depart="134.32">
        <route edges="329618112#0 336821424#2 1372032699 979747412#5 605330157#2 51718751#1"/>
    </vehicle>
    <vehicle id="183" depart="135.05">
        <route edges="14275978#0 336821421#0 587820064#0 587820064#3 581139433#0"/>
    </vehicle>
    <vehicle id="184" depart="135.79">
        <route edges="-4375945#2 51718751#5 587820064#0 996851890#0"/>
    </vehicle>
    <vehicle id="185" depart="136.53">
        <route edges="4375946#1 581139433#2"/>
    </vehicle>
    <vehicle id="186" depart="137.27">
        <route edges="587820064#3 4880748#1 595993913#0 587820062 1238987830#1 1372032743#1 E3 572782807#3"/>
    </vehicle>
    <vehicle id="187" depart="138.01">
        <route edges="326085079 1372032704#1 1363867492#0"/>
    </vehicle>
    <vehicle id="188" depart="138.74">
        <route edges="572782809#1 605330157#2 157967586#2"/>
    </vehicle>
    <vehicle id="189" depart="139.48">
        <route edges="157967586#2 667351643#0"/>
    </vehicle>
    <vehicle id="190" depart="140.22">
        <route edges="587820062 979747412#5 605330157#2 157967584#0"/>
    </vehicle>
    <vehicle id="191" depart="140.96">
        <route edges="157967586#2 4375946#1 667351644 4880748#1 595993913#0 587820062 336821421#0"/>
    </vehicle>
    <vehicle id="192" depart="141.70">
        <route edges="336821421#0 587820065 595993911#1 157967584#0"/>
    </vehicle>
    <vehicle id="193" depart="142.43">
        <route edges="1372032699 336821421#0"/>
    </vehicle>
    <vehicle id="194" depart="143.17">
        <route edges="E11 1415317945#0 384668302 1415317946#0 587820062 1238987830#1 1372032743#1 E3 572782809#1"/>
    </vehicle>
    <vehicle id="195" depart="143.91">
        <route edges="996851888#1 553240096#4"/>
    </vehicle>
    <vehicle id="196" depart="144.65">
        <route edges="157967586#2 4375946#1 -4375945#5 4375945#5"/>
    </vehicle>
    <vehicle id="197" depart="145.39">
        <route edges="-4375945#2 51718751#5 587820062 1238987830#1 1372032743#1 154262322#1"/>
    </vehicle>
    <vehicle id="198" depart="146.12">
        <route edges="384668302 1415317946#0 587820065 51718751#5"/>
    </vehicle>
    <vehicle id="199" depart="146.86">
        <route edges="572782809#1 605330157#2 51718751#1 51718751#5 1415317947#5 384668305"/>
    </vehicle>
    <vehicle id="200" depart="147.60">
        <route edges="384668304 384668302 1415317946#0 587820062 1238987830#1 1372032743#1 1415317940#1"/>
    </vehicle>
    <vehicle id="201" depart="148.34">
        <route edges="384668306 1363867492#0 384668307 384668304 553240095#1 996851890#0 996851888#1"/>
    </vehicle>
    <vehicle id="202" depart="149.08">
        <route edges="594790657#2 1415317945#0 384668302 384668305 384668306 1372032740#1"/>
    </vehicle>
    <vehicle id="203" depart="149.81">
        <route edges="1363867493 14275978#0 336821421#0 587820064#0 587820064#3 420013393#0"/>
    </vehicle>
    <vehicle id="204" depart="150.55">
        <route edges="557050557#0 157967586#2"/>
    </vehicle>
    <vehicle id="205" depart="151.29">
        <route edges="595993913#0 587820064#0"/>
    </vehicle>
    <vehicle id="206" depart="152.03">
        <route edges="572782809#1 979747410#1 336821421#0 587820064#0 587820064#3 594790657#2 1415317945#0"/>
    </vehicle>
    <vehicle id="207" depart="152.77">
        <route edges="1372032743#1 336821424#2 1372032699 336821421#0 587820064#0 587820064#3 581139433#0 -4375945#5"/>
    </vehicle>
    <vehicle id="208" depart="153.50">
        <route edges="1415317947#5 384668305"/>
    </vehicle>
    <vehicle id="209" depart="154.24">
        <route edges="667351644 594790657#2 1415317945#0 384668302 384668305 384668306 1363867492#0"/>
    </vehicle>
    <vehicle id="210" depart="154.98">
        <route edges="336821424#2 1372032699 979747412#5 605330157#2 157967586#2 557050557#0"/>
    </vehicle>
    <vehicle id="211" depart="155.72">
        <route edges="1372032743#1 E3 572782809#1"/>
    </vehicle>
    <vehicle id="212" depart="156.46">
        <route edges="384668307 1415317946#0"/>
    </vehicle>
    <vehicle id="213" depart="157.19">
        <route edges="572782809#1 605330157#2 51718751#1 4375945#2 -4375945#2"/>
    </vehicle>
    <vehicle id="214" depart="157.93">
        <route edges="587820064#3"/>
    </vehicle>
    <vehicle id="215" depart="158.67">
        <route edges="1364473310 14275978#0 1238987830#1 1372032743#1 336821424#2"/>
    </vehicle>
    <vehicle id="216" depart="159.41">
        <route edges="1372032740#1 329618112#0 E3"/>
    </vehicle>
    <vehicle id="217" depart="160.15">
        <route edges="4375945#5 667351644 594790657#2 1415317945#0 1363867491#4"/>
    </vehicle>
    <vehicle id="218" depart="160.88">
        <route edges="1415317947#5 384668304 1363867491#4 1363867508#0 581139433#0 581139433#2 667351643#0"/>
    </vehicle>
    <vehicle id="219" depart="161.62">
        <route edges="384668305 14275978#0 336821421#0 587820064#0 587820064#3 594790657#2"/>
    </vehicle>
    <vehicle id="220" depart="162.36">