<?xml version="1.0" encoding="UTF-8"?>

<!-- generated on 2025-08-02 17:32:02 by Eclipse SUMO netedit Version 1.20.0
<configuration xmlns:xsi="http://www.w3.org/2001/XMLSchema-instance" xsi:noNamespaceSchemaLocation="http://sumo.dlr.de/xsd/neteditConfiguration.xsd">

    <input>
        <sumo-net-file value="D:\GoogleChromeDownload\vs_code_file\vs_code_python\毕业设计\sumoTSC\traffic_simulation\maps\jinan\jinan.net.xml"/>
    </input>

    <output>
        <output-file value="D:\GoogleChromeDownload\vs_code_file\vs_code_python\毕业设计\sumoTSC\traffic_simulation\maps\jinan\jinan.net.xml"/>
    </output>

    <processing>
        <geometry.min-radius.fix.railways value="false"/>
        <geometry.max-grade.fix value="false"/>
        <offset.disable-normalization value="true"/>
        <lefthand value="0"/>
    </processing>

    <junctions>
        <no-turnarounds value="true"/>
        <junctions.corner-detail value="5"/>
        <junctions.limit-turn-speed value="5.50"/>
        <rectangular-lane-cut value="0"/>
    </junctions>

    <pedestrian>
        <walkingareas value="0"/>
    </pedestrian>

</configuration>
-->

<net version="1.20" junctionCornerDetail="5" limitTurnSpeed="5.50" xmlns:xsi="http://www.w3.org/2001/XMLSchema-instance" xsi:noNamespaceSchemaLocation="http://sumo.dlr.de/xsd/net_file.xsd">

    <location netOffset="-511832.76,-4054451.77" convBoundary="202.84,498.76,2468.86,2677.85" origBoundary="117.035852,36.635543,117.161725,36.727341" projParameter="+proj=utm +zone=50 +ellps=WGS84 +datum=WGS84 +units=m +no_defs"/>

    <type id="highway.primary" priority="12" numLanes="2" speed="27.78" disallow="tram rail_urban rail rail_electric rail_fast ship container cable_car subway aircraft wheelchair scooter drone" oneway="0"/>
    <type id="highway.secondary" priority="11" numLanes="1" speed="27.78" disallow="tram rail_urban rail rail_electric rail_fast ship container cable_car subway aircraft wheelchair scooter drone" oneway="0"/>
    <type id="highway.tertiary" priority="10" numLanes="1" speed="22.22" disallow="tram rail_urban rail rail_electric rail_fast ship container cable_car subway aircraft wheelchair scooter drone" oneway="0"/>

    <edge id=":1_0" function="internal">
        <lane id=":1_0_0" index="0" disallow="tram rail_urban rail rail_electric rail_fast ship container cable_car subway aircraft wheelchair scooter drone" speed="6.49" length="9.02" shape="634.56,2221.78 632.16,2221.17 630.15,2221.48 628.52,2222.70 627.27,2224.84"/>
    </edge>
    <edge id=":1_1" function="internal">
        <lane id=":1_1_0" index="0" disallow="tram rail_urban rail rail_electric rail_fast ship container cable_car subway aircraft wheelchair scooter drone" speed="27.78" length="31.68" shape="634.56,2221.78 605.33,2209.29"/>
        <lane id=":1_1_1" index="1" disallow="tram rail_urban rail rail_electric rail_fast ship container cable_car subway aircraft wheelchair scooter drone" speed="27.78" length="31.68" shape="635.75,2218.81 606.62,2206.36"/>
        <lane id=":1_1_2" index="2" disallow="tram rail_urban rail rail_electric rail_fast ship container cable_car subway aircraft wheelchair scooter drone" speed="27.78" length="31.68" shape="636.94,2215.84 607.91,2203.43"/>
    </edge>
    <edge id=":1_4" function="internal">
        <lane id=":1_4_0" index="0" disallow="tram rail_urban rail rail_electric rail_fast ship container cable_car subway aircraft wheelchair scooter drone" speed="13.04" length="17.40" shape="638.13,2212.87 632.12,2208.72 628.64,2202.29 628.33,2199.53"/>
    </edge>
    <edge id=":1_5" function="internal">
        <lane id=":1_5_0" index="0" disallow="tram rail_urban rail rail_electric rail_fast ship container cable_car subway aircraft wheelchair scooter drone" speed="5.17" length="5.82" shape="638.13,2212.87 636.10,2209.91 635.92,2207.69"/>
    </edge>
    <edge id=":1_22" function="internal">
        <lane id=":1_22_0" index="0" disallow="tram rail_urban rail rail_electric rail_fast ship container cable_car subway aircraft wheelchair scooter drone" speed="13.04" length="17.12" shape="628.33,2199.53 627.68,2193.57 629.24,2182.56"/>
    </edge>
    <edge id=":1_23" function="internal">
        <lane id=":1_23_0" index="0" disallow="tram rail_urban rail rail_electric rail_fast ship container cable_car subway aircraft wheelchair scooter drone" speed="5.17" length="5.82" shape="635.92,2207.69 637.59,2206.21 641.11,2205.47"/>
    </edge>
    <edge id=":1_6" function="internal">
        <lane id=":1_6_0" index="0" disallow="tram rail_urban rail rail_electric rail_fast ship container cable_car subway aircraft wheelchair scooter drone" speed="8.40" length="13.92" shape="639.69,2184.99 639.24,2188.99 639.92,2192.26 641.73,2194.78 644.68,2196.56"/>
    </edge>
    <edge id=":1_7" function="internal">
        <lane id=":1_7_0" index="0" disallow="tram rail_urban rail rail_electric rail_fast ship container cable_car subway aircraft wheelchair scooter drone" speed="27.78" length="41.53" shape="639.69,2184.99 637.11,2195.43 634.32,2205.18 631.12,2214.81 627.27,2224.84"/>
        <lane id=":1_7_1" index="1" disallow="tram rail_urban rail rail_electric rail_fast ship container cable_car subway aircraft wheelchair scooter drone" speed="27.78" length="41.53" shape="636.58,2184.27 634.01,2194.62 631.28,2204.22 628.13,2213.67 624.31,2223.63"/>
    </edge>
    <edge id=":1_9" function="internal">
        <lane id=":1_9_0" index="0" disallow="tram rail_urban rail rail_electric rail_fast ship container cable_car subway aircraft wheelchair scooter drone" speed="11.70" length="20.58" shape="633.46,2183.54 630.20,2193.88 625.57,2200.51 624.01,2201.06"/>
    </edge>
    <edge id=":1_10" function="internal">
        <lane id=":1_10_0" index="0" disallow="tram rail_urban rail rail_electric rail_fast ship container cable_car subway aircraft wheelchair scooter drone" speed="4.06" length="3.16" shape="633.46,2183.54 632.04,2184.88 630.86,2185.16"/>
    </edge>
    <edge id=":1_24" function="internal">
        <lane id=":1_24_0" index="0" disallow="tram rail_urban rail rail_electric rail_fast ship container cable_car subway aircraft wheelchair scooter drone" speed="11.70" length="15.42" shape="624.01,2201.06 618.81,2202.89 609.20,2200.50"/>
    </edge>
    <edge id=":1_25" function="internal">
        <lane id=":1_25_0" index="0" disallow="tram rail_urban rail rail_electric rail_fast ship container cable_car subway aircraft wheelchair scooter drone" speed="4.06" length="3.16" shape="630.86,2185.16 629.93,2184.39 629.24,2182.56"/>
    </edge>
    <edge id=":1_11" function="internal">
        <lane id=":1_11_0" index="0" disallow="tram rail_urban rail rail_electric rail_fast ship container cable_car subway aircraft wheelchair scooter drone" speed="6.14" length="9.05" shape="616.24,2184.49 618.70,2185.18 620.64,2184.84 622.08,2183.48 623.01,2181.11"/>
    </edge>
    <edge id=":1_12" function="internal">
        <lane id=":1_12_0" index="0" disallow="tram rail_urban rail rail_electric rail_fast ship container cable_car subway aircraft wheelchair scooter drone" speed="27.78" length="31.00" shape="616.24,2184.49 644.68,2196.56"/>
        <lane id=":1_12_1" index="1" disallow="tram rail_urban rail rail_electric rail_fast ship container cable_car subway aircraft wheelchair scooter drone" speed="27.78" length="31.00" shape="614.95,2187.42 643.49,2199.53"/>
        <lane id=":1_12_2" index="2" disallow="tram rail_urban rail rail_electric rail_fast ship container cable_car subway aircraft wheelchair scooter drone" speed="27.78" length="31.00" shape="613.66,2190.35 642.30,2202.50"/>
    </edge>
    <edge id=":1_15" function="internal">
        <lane id=":1_15_0" index="0" disallow="tram rail_urban rail rail_electric rail_fast ship container cable_car subway aircraft wheelchair scooter drone" speed="12.35" length="18.84" shape="612.37,2193.28 619.56,2198.02 623.45,2204.47 623.65,2207.16"/>
    </edge>
    <edge id=":1_16" function="internal">
        <lane id=":1_16_0" index="0" disallow="tram rail_urban rail rail_electric rail_fast ship container cable_car subway aircraft wheelchair scooter drone" speed="5.14" length="5.76" shape="612.37,2193.28 614.29,2196.27 614.40,2198.48"/>
    </edge>
    <edge id=":1_26" function="internal">
        <lane id=":1_26_0" index="0" disallow="tram rail_urban rail rail_electric rail_fast ship container cable_car subway aircraft wheelchair scooter drone" speed="12.35" length="15.64" shape="623.65,2207.16 624.05,2212.60 621.35,2222.42"/>
    </edge>
    <edge id=":1_27" function="internal">
        <lane id=":1_27_0" index="0" disallow="tram rail_urban rail rail_electric rail_fast ship container cable_car subway aircraft wheelchair scooter drone" speed="5.14" length="5.76" shape="614.40,2198.48 612.70,2199.88 609.20,2200.50"/>
    </edge>
    <edge id=":1_17" function="internal">
        <lane id=":1_17_0" index="0" disallow="tram rail_urban rail rail_electric rail_fast ship container cable_car subway aircraft wheelchair scooter drone" speed="7.46" length="12.11" shape="611.23,2218.30 611.73,2215.71 610.91,2213.35 608.78,2211.20 605.33,2209.29"/>
    </edge>
    <edge id=":1_18" function="internal">
        <lane id=":1_18_0" index="0" disallow="tram rail_urban rail rail_electric rail_fast ship container cable_car subway aircraft wheelchair scooter drone" speed="27.78" length="39.32" shape="611.23,2218.30 615.09,2208.73 618.06,2200.01 620.56,2191.14 623.01,2181.11"/>
        <lane id=":1_18_1" index="1" disallow="tram rail_urban rail rail_electric rail_fast ship container cable_car subway aircraft wheelchair scooter drone" speed="27.78" length="39.32" shape="614.20,2219.51 618.08,2209.86 621.10,2200.98 623.66,2191.94 626.12,2181.83"/>
    </edge>
    <edge id=":1_20" function="internal">
        <lane id=":1_20_0" index="0" disallow="tram rail_urban rail rail_electric rail_fast ship container cable_car subway aircraft wheelchair scooter drone" speed="11.87" length="18.04" shape="617.16,2220.72 622.07,2211.81 627.69,2206.30"/>
    </edge>
    <edge id=":1_21" function="internal">
        <lane id=":1_21_0" index="0" disallow="tram rail_urban rail rail_electric rail_fast ship container cable_car subway aircraft wheelchair scooter drone" speed="4.13" length="3.30" shape="617.16,2220.72 618.85,2219.57 620.11,2219.47"/>
    </edge>
    <edge id=":1_28" function="internal">
        <lane id=":1_28_0" index="0" disallow="tram rail_urban rail rail_electric rail_fast ship container cable_car subway aircraft wheelchair scooter drone" speed="11.87" length="13.87" shape="627.69,2206.30 634.04,2204.19 641.11,2205.47"/>
    </edge>
    <edge id=":1_29" function="internal">
        <lane id=":1_29_0" index="0" disallow="tram rail_urban rail rail_electric rail_fast ship container cable_car subway aircraft wheelchair scooter drone" speed="4.13" length="3.30" shape="620.11,2219.47 620.94,2220.43 621.35,2222.42"/>
    </edge>
    <edge id=":10_0" function="internal">
        <lane id=":10_0_0" index="0" disallow="tram rail_urban rail rail_electric rail_fast ship container cable_car subway aircraft wheelchair scooter drone" speed="6.12" length="9.06" shape="1164.53,1713.03 1162.02,1712.51 1160.11,1712.99 1158.79,1714.45 1158.06,1716.90"/>
    </edge>
    <edge id=":10_1" function="internal">
        <lane id=":10_1_0" index="0" disallow="tram rail_urban rail rail_electric rail_fast ship container cable_car subway aircraft wheelchair scooter drone" speed="22.22" length="21.55" shape="1164.53,1713.03 1158.75,1710.98 1154.47,1709.66 1150.09,1708.71 1144.03,1707.76"/>
        <lane id=":10_1_1" index="1" disallow="tram rail_urban rail rail_electric rail_fast ship container cable_car subway aircraft wheelchair scooter drone" speed="22.22" length="21.55" shape="1165.62,1710.02 1159.74,1707.94 1155.24,1706.57 1150.64,1705.57 1144.49,1704.60"/>
    </edge>
    <edge id=":10_3" function="internal">
        <lane id=":10_3_0" index="0" disallow="tram rail_urban rail rail_electric rail_fast ship container cable_car subway aircraft wheelchair scooter drone" speed="3.65" length="4.67" shape="1165.62,1710.02 1164.76,1708.86 1164.66,1707.97 1165.30,1707.36 1166.70,1707.01"/>
    </edge>
    <edge id=":10_4" function="internal">
        <lane id=":10_4_0" index="0" disallow="tram rail_urban rail rail_electric rail_fast ship container cable_car subway aircraft wheelchair scooter drone" speed="22.22" length="23.17" shape="1145.40,1698.26 1151.76,1699.28 1156.78,1700.39 1161.72,1701.87 1167.79,1704.00"/>
    </edge>
    <edge id=":10_5" function="internal">
        <lane id=":10_5_0" index="0" disallow="tram rail_urban rail rail_electric rail_fast ship container cable_car subway aircraft wheelchair scooter drone" speed="9.51" length="20.52" shape="1144.95,1701.43 1150.03,1703.01 1153.38,1706.04 1155.00,1710.51 1154.89,1716.44"/>
    </edge>
    <edge id=":10_6" function="internal">
        <lane id=":10_6_0" index="0" disallow="tram rail_urban rail rail_electric rail_fast ship container cable_car subway aircraft wheelchair scooter drone" speed="3.65" length="4.67" shape="1144.95,1701.43 1146.02,1702.39 1146.30,1703.24 1145.79,1703.98 1144.49,1704.60"/>
    </edge>
    <edge id=":10_7" function="internal">
        <lane id=":10_7_0" index="0" disallow="tram rail_urban rail rail_electric rail_fast ship container cable_car subway aircraft wheelchair scooter drone" speed="6.87" length="10.20" shape="1148.56,1715.51 1148.66,1712.42 1147.94,1710.10 1146.40,1708.55 1144.03,1707.76"/>
    </edge>
    <edge id=":10_8" function="internal">
        <lane id=":10_8_0" index="0" disallow="tram rail_urban rail rail_electric rail_fast ship container cable_car subway aircraft wheelchair scooter drone" speed="8.99" length="20.97" shape="1151.73,1715.97 1153.41,1710.30 1156.47,1706.91 1160.90,1705.82 1166.70,1707.01"/>
    </edge>
    <edge id=":10_9" function="internal">
        <lane id=":10_9_0" index="0" disallow="tram rail_urban rail rail_electric rail_fast ship container cable_car subway aircraft wheelchair scooter drone" speed="3.65" length="4.67" shape="1151.73,1715.97 1152.69,1714.90 1153.54,1714.62 1154.27,1715.13 1154.89,1716.44"/>
    </edge>
    <edge id=":11_0" function="internal">
        <lane id=":11_0_0" index="0" disallow="tram rail_urban rail rail_electric rail_fast ship container cable_car subway aircraft wheelchair scooter drone" speed="6.48" length="9.03" shape="1426.54,1827.10 1424.17,1826.39 1422.14,1826.62 1420.47,1827.78 1419.15,1829.88"/>
    </edge>
    <edge id=":11_1" function="internal">
        <lane id=":11_1_0" index="0" disallow="tram rail_urban rail rail_electric rail_fast ship container cable_car subway aircraft wheelchair scooter drone" speed="22.22" length="21.69" shape="1426.54,1827.10 1420.90,1824.46 1416.69,1822.35 1412.59,1820.06 1407.24,1816.87"/>
        <lane id=":11_1_1" index="1" disallow="tram rail_urban rail rail_electric rail_fast ship container cable_car subway aircraft wheelchair scooter drone" speed="22.22" length="21.69" shape="1427.88,1824.20 1422.29,1821.58 1418.19,1819.53 1414.19,1817.29 1408.89,1814.13"/>
    </edge>
    <edge id=":11_3" function="internal">
        <lane id=":11_3_0" index="0" disallow="tram rail_urban rail rail_electric rail_fast ship container cable_car subway aircraft wheelchair scooter drone" speed="3.65" length="4.67" shape="1427.88,1824.20 1427.13,1822.97 1427.10,1822.07 1427.80,1821.51 1429.23,1821.29"/>
    </edge>
    <edge id=":11_4" function="internal">
        <lane id=":11_4_0" index="0" disallow="tram rail_urban rail rail_electric rail_fast ship container cable_car subway aircraft wheelchair scooter drone" speed="22.22" length="20.80" shape="1412.18,1808.69 1417.40,1811.78 1421.19,1813.89 1425.07,1815.82 1430.57,1818.39"/>
    </edge>
    <edge id=":11_5" function="internal">
        <lane id=":11_5_0" index="0" disallow="tram rail_urban rail rail_electric rail_fast ship container cable_car subway aircraft wheelchair scooter drone" speed="9.88" length="20.11" shape="1410.53,1811.43 1414.83,1814.86 1417.22,1818.87 1417.68,1823.44 1416.23,1828.58"/>
    </edge>
    <edge id=":11_6" function="internal">
        <lane id=":11_6_0" index="0" disallow="tram rail_urban rail rail_electric rail_fast ship container cable_car subway aircraft wheelchair scooter drone" speed="3.64" length="4.61" shape="1410.53,1811.43 1411.13,1812.71 1411.06,1813.59 1410.32,1814.07 1408.89,1814.13"/>
    </edge>
    <edge id=":11_7" function="internal">
        <lane id=":11_7_0" index="0" disallow="tram rail_urban rail rail_electric rail_fast ship container cable_car subway aircraft wheelchair scooter drone" speed="7.08" length="9.84" shape="1409.28,1825.49 1410.12,1822.77 1410.06,1820.42 1409.10,1818.46 1407.24,1816.87"/>
    </edge>
    <edge id=":11_8" function="internal">
        <lane id=":11_8_0" index="0" disallow="tram rail_urban rail rail_electric rail_fast ship container cable_car subway aircraft wheelchair scooter drone" speed="9.45" length="20.45" shape="1412.21,1826.79 1415.12,1822.29 1418.92,1819.87 1423.62,1819.54 1429.23,1821.29"/>
    </edge>
    <edge id=":11_9" function="internal">
        <lane id=":11_9_0" index="0" disallow="tram rail_urban rail rail_electric rail_fast ship container cable_car subway aircraft wheelchair scooter drone" speed="4.08" length="6.43" shape="1412.21,1826.79 1413.88,1825.73 1415.11,1825.68 1415.89,1826.63 1416.23,1828.58"/>
    </edge>
    <edge id=":12_0" function="internal">
        <lane id=":12_0_0" index="0" disallow="tram rail_urban rail rail_electric rail_fast ship container cable_car subway aircraft wheelchair scooter drone" speed="6.66" length="9.29" shape="1713.19,1949.50 1710.78,1948.99 1708.73,1949.40 1707.06,1950.73 1705.76,1952.99"/>
    </edge>
    <edge id=":12_1" function="internal">
        <lane id=":12_1_0" index="0" disallow="tram rail_urban rail rail_electric rail_fast ship container cable_car subway aircraft wheelchair scooter drone" speed="22.22" length="37.20" shape="1713.19,1949.50 1678.61,1935.79"/>
    </edge>
    <edge id=":12_2" function="internal">
        <lane id=":12_2_0" index="0" disallow="tram rail_urban rail rail_electric rail_fast ship container cable_car subway aircraft wheelchair scooter drone" speed="12.46" length="16.57" shape="1714.32,1946.51 1706.47,1942.56 1701.16,1937.58 1700.95,1937.13"/>
    </edge>
    <edge id=":12_3" function="internal">
        <lane id=":12_3_0" index="0" speed="3.70" length="2.43" shape="1714.32,1946.51 1713.44,1945.29 1713.35,1944.37"/>
    </edge>
    <edge id=":12_20" function="internal">
        <lane id=":12_20_0" index="0" disallow="tram rail_urban rail rail_electric rail_fast ship container cable_car subway aircraft wheelchair scooter drone" speed="12.46" length="13.22" shape="1700.95,1937.13 1698.39,1931.54 1698.16,1924.47"/>
    </edge>
    <edge id=":12_21" function="internal">
        <lane id=":12_21_0" index="0" speed="3.70" length="2.43" shape="1713.35,1944.37 1714.03,1943.74 1715.49,1943.40"/>
    </edge>
    <edge id=":12_4" function="internal">
        <lane id=":12_4_0" index="0" disallow="tram rail_urban rail rail_electric rail_fast ship container cable_car subway aircraft wheelchair scooter drone" speed="9.27" length="15.78" shape="1712.12,1926.38 1711.90,1931.69 1712.57,1935.80 1714.14,1938.70 1716.61,1940.41"/>
    </edge>
    <edge id=":12_5" function="internal">
        <lane id=":12_5_0" index="0" disallow="tram rail_urban rail rail_electric rail_fast ship container cable_car subway aircraft wheelchair scooter drone" speed="27.78" length="26.70" shape="1712.12,1926.38 1711.20,1934.49 1710.31,1940.04 1708.73,1945.40 1705.76,1952.99"/>
        <lane id=":12_5_1" index="1" disallow="tram rail_urban rail rail_electric rail_fast ship container cable_car subway aircraft wheelchair scooter drone" speed="27.78" length="26.70" shape="1708.95,1925.95 1708.06,1933.82 1707.20,1939.20 1705.68,1944.41 1702.80,1951.77"/>
        <lane id=":12_5_2" index="2" disallow="tram rail_urban rail rail_electric rail_fast ship container cable_car subway aircraft wheelchair scooter drone" speed="27.78" length="26.70" shape="1705.78,1925.51 1704.92,1933.14 1704.10,1938.36 1702.63,1943.42 1699.84,1950.55"/>
    </edge>
    <edge id=":12_8" function="internal">
        <lane id=":12_8_0" index="0" disallow="tram rail_urban rail rail_electric rail_fast ship container cable_car subway aircraft wheelchair scooter drone" speed="10.38" length="12.83" shape="1702.61,1925.08 1700.15,1932.60 1696.05,1935.31"/>
    </edge>
    <edge id=":12_9" function="internal">
        <lane id=":12_9_0" index="0" disallow="tram rail_urban rail rail_electric rail_fast ship container cable_car subway aircraft wheelchair scooter drone" speed="4.13" length="3.28" shape="1702.61,1925.08 1701.27,1926.59 1700.08,1927.00"/>
    </edge>
    <edge id=":12_22" function="internal">
        <lane id=":12_22_0" index="0" disallow="tram rail_urban rail rail_electric rail_fast ship container cable_car subway aircraft wheelchair scooter drone" speed="10.38" length="16.84" shape="1696.05,1935.31 1695.29,1935.82 1688.39,1935.60 1679.81,1932.82"/>
    </edge>
    <edge id=":12_23" function="internal">
        <lane id=":12_23_0" index="0" disallow="tram rail_urban rail rail_electric rail_fast ship container cable_car subway aircraft wheelchair scooter drone" speed="4.13" length="3.28" shape="1700.08,1927.00 1699.04,1926.29 1698.16,1924.47"/>
    </edge>
    <edge id=":12_10" function="internal">
        <lane id=":12_10_0" index="0" disallow="tram rail_urban rail rail_electric rail_fast ship container cable_car subway aircraft wheelchair scooter drone" speed="6.04" length="9.07" shape="1682.21,1926.89 1684.72,1927.51 1686.63,1927.10 1687.94,1925.65 1688.65,1923.16"/>
    </edge>
    <edge id=":12_11" function="internal">
        <lane id=":12_11_0" index="0" disallow="tram rail_urban rail rail_electric rail_fast ship container cable_car subway aircraft wheelchair scooter drone" speed="22.22" length="36.96" shape="1682.21,1926.89 1716.61,1940.41"/>
    </edge>
    <edge id=":12_12" function="internal">
        <lane id=":12_12_0" index="0" disallow="tram rail_urban rail rail_electric rail_fast ship container cable_car subway aircraft wheelchair scooter drone" speed="11.02" length="17.80" shape="1681.01,1929.86 1689.68,1934.18 1695.22,1938.87 1695.59,1939.65"/>
    </edge>
    <edge id=":12_13" function="internal">
        <lane id=":12_13_0" index="0" disallow="tram rail_urban rail rail_electric rail_fast ship container cable_car subway aircraft wheelchair scooter drone" speed="3.65" length="2.34" shape="1681.01,1929.86 1681.82,1931.05 1681.89,1931.94"/>
    </edge>
    <edge id=":12_24" function="internal">
        <lane id=":12_24_0" index="0" disallow="tram rail_urban rail rail_electric rail_fast ship container cable_car subway aircraft wheelchair scooter drone" speed="11.02" length="10.19" shape="1695.59,1939.65 1697.62,1943.92 1696.88,1949.33"/>
    </edge>
    <edge id=":12_25" function="internal">
        <lane id=":12_25_0" index="0" disallow="tram rail_urban rail rail_electric rail_fast ship container cable_car subway aircraft wheelchair scooter drone" speed="3.65" length="2.34" shape="1681.89,1931.94 1681.22,1932.53 1679.81,1932.82"/>
    </edge>
    <edge id=":12_14" function="internal">
        <lane id=":12_14_0" index="0" disallow="tram rail_urban rail rail_electric rail_fast ship container cable_car subway aircraft wheelchair scooter drone" speed="7.08" length="10.84" shape="1683.71,1943.91 1684.17,1941.44 1683.47,1939.27 1681.62,1937.39 1678.61,1935.79"/>
    </edge>
    <edge id=":12_15" function="internal">
        <lane id=":12_15_0" index="0" disallow="tram rail_urban rail rail_electric rail_fast ship container cable_car subway aircraft wheelchair scooter drone" speed="27.78" length="22.24" shape="1683.71,1943.91 1685.95,1937.97 1687.12,1933.78 1687.82,1929.47 1688.65,1923.16"/>
        <lane id=":12_15_1" index="1" disallow="tram rail_urban rail rail_electric rail_fast ship container cable_car subway aircraft wheelchair scooter drone" speed="27.78" length="22.24" shape="1686.67,1945.12 1688.99,1938.97 1690.22,1934.62 1690.96,1930.14 1691.82,1923.60"/>
        <lane id=":12_15_2" index="2" disallow="tram rail_urban rail rail_electric rail_fast ship container cable_car subway aircraft wheelchair scooter drone" speed="27.78" length="22.24" shape="1689.63,1946.34 1692.04,1939.96 1693.32,1935.46 1694.09,1930.82 1694.99,1924.03"/>
    </edge>
    <edge id=":12_18" function="internal">
        <lane id=":12_18_0" index="0" disallow="tram rail_urban rail rail_electric rail_fast ship container cable_car subway aircraft wheelchair scooter drone" speed="10.74" length="10.71" shape="1692.58,1947.56 1695.68,1943.14 1700.53,1940.97"/>
    </edge>
    <edge id=":12_19" function="internal">
        <lane id=":12_19_0" index="0" disallow="tram rail_urban rail rail_electric rail_fast ship container cable_car subway aircraft wheelchair scooter drone" speed="4.17" length="3.39" shape="1692.58,1947.56 1694.32,1946.39 1695.62,1946.30"/>
    </edge>
    <edge id=":12_26" function="internal">
        <lane id=":12_26_0" index="0" disallow="tram rail_urban rail rail_electric rail_fast ship container cable_car subway aircraft wheelchair scooter drone" speed="10.74" length="15.28" shape="1700.53,1940.97 1707.13,1941.06 1715.49,1943.40"/>
    </edge>
    <edge id=":12_27" function="internal">
        <lane id=":12_27_0" index="0" disallow="tram rail_urban rail rail_electric rail_fast ship container cable_car subway aircraft wheelchair scooter drone" speed="4.17" length="3.39" shape="1695.62,1946.30 1696.47,1947.28 1696.88,1949.33"/>
    </edge>
    <edge id=":13_0" function="internal">
        <lane id=":13_0_0" index="0" disallow="tram rail_urban rail rail_electric rail_fast ship container cable_car subway aircraft wheelchair scooter drone" speed="6.61" length="9.36" shape="687.65,1264.61 687.14,1262.01 685.98,1260.20 684.16,1259.19 681.69,1258.97"/>
    </edge>
    <edge id=":13_1" function="internal">
        <lane id=":13_1_0" index="0" disallow="tram rail_urban rail rail_electric rail_fast ship container cable_car subway aircraft wheelchair scooter drone" speed="27.78" length="21.34" shape="687.65,1264.61 686.39,1243.29"/>
        <lane id=":13_1_1" index="1" disallow="tram rail_urban rail rail_electric rail_fast ship container cable_car subway aircraft wheelchair scooter drone" speed="27.78" length="21.34" shape="690.85,1264.41 689.58,1243.12"/>
    </edge>
    <edge id=":13_3" function="internal">
        <lane id=":13_3_0" index="0" disallow="tram rail_urban rail rail_electric rail_fast ship container cable_car subway aircraft wheelchair scooter drone" speed="9.98" length="11.16" shape="694.04,1264.21 694.75,1258.70 697.64,1254.73 698.26,1254.43"/>
    </edge>
    <edge id=":13_4" function="internal">
        <lane id=":13_4_0" index="0" disallow="tram rail_urban rail rail_electric rail_fast ship container cable_car subway aircraft wheelchair scooter drone" speed="4.06" length="3.17" shape="694.04,1264.21 695.02,1262.52 696.07,1261.91"/>
    </edge>
    <edge id=":13_18" function="internal">
        <lane id=":13_18_0" index="0" disallow="tram rail_urban rail rail_electric rail_fast ship container cable_car subway aircraft wheelchair scooter drone" speed="9.98" length="12.24" shape="698.26,1254.43 702.71,1252.29 709.96,1251.37"/>
    </edge>
    <edge id=":13_19" function="internal">
        <lane id=":13_19_0" index="0" disallow="tram rail_urban rail rail_electric rail_fast ship container cable_car subway aircraft wheelchair scooter drone" speed="4.06" length="3.17" shape="696.07,1261.91 697.18,1262.38 698.37,1263.94"/>
    </edge>
    <edge id=":13_5" function="internal">
        <lane id=":13_5_0" index="0" disallow="tram rail_urban rail rail_electric rail_fast ship container cable_car subway aircraft wheelchair scooter drone" speed="6.41" length="9.04" shape="710.07,1257.77 707.61,1258.17 705.91,1259.26 704.96,1261.05 704.76,1263.54"/>
    </edge>
    <edge id=":13_6" function="internal">
        <lane id=":13_6_0" index="0" disallow="tram rail_urban rail rail_electric rail_fast ship container cable_car subway aircraft wheelchair scooter drone" speed="22.22" length="28.40" shape="710.07,1257.77 681.69,1258.97"/>
    </edge>
    <edge id=":13_7" function="internal">
        <lane id=":13_7_0" index="0" disallow="tram rail_urban rail rail_electric rail_fast ship container cable_car subway aircraft wheelchair scooter drone" speed="10.26" length="13.68" shape="710.02,1254.57 702.72,1253.96 697.41,1251.81 696.99,1251.35"/>
    </edge>
    <edge id=":13_8" function="internal">
        <lane id=":13_8_0" index="0" disallow="tram rail_urban rail rail_electric rail_fast ship container cable_car subway aircraft wheelchair scooter drone" speed="3.65" length="2.34" shape="710.02,1254.57 708.80,1253.80 708.39,1253.00"/>
    </edge>
    <edge id=":13_20" function="internal">
        <lane id=":13_20_0" index="0" disallow="tram rail_urban rail rail_electric rail_fast ship container cable_car subway aircraft wheelchair scooter drone" speed="10.26" length="9.68" shape="696.99,1251.35 694.10,1248.14 692.78,1242.95"/>
    </edge>
    <edge id=":13_21" function="internal">
        <lane id=":13_21_0" index="0" disallow="tram rail_urban rail rail_electric rail_fast ship container cable_car subway aircraft wheelchair scooter drone" speed="3.65" length="2.34" shape="708.39,1253.00 708.78,1252.20 709.96,1251.37"/>
    </edge>
    <edge id=":13_9" function="internal">
        <lane id=":13_9_0" index="0" disallow="tram rail_urban rail rail_electric rail_fast ship container cable_car subway aircraft wheelchair scooter drone" speed="6.79" length="9.71" shape="703.61,1242.36 704.11,1244.94 705.32,1246.77 707.26,1247.85 709.90,1248.18"/>
    </edge>
    <edge id=":13_10" function="internal">