<?xml version="1.0" encoding="UTF-8"?>

<!-- generated on 2025-08-07 13:46:01.691395 by randomTrips.py v1_20_0+0002-343658e7c64
<configuration>
    <net-file value="traffic_simulation\maps\jinan\jinan.net.xml"/>
    <route-file value="traffic_simulation\maps\jinan\jinan_2400.rou.xml"/>
    <length value="True"/>
    <end value="1800.0"/>
    <period value="0.75"/>
</configuration>
-->

<!-- generated on 2025-08-07 13:46:01 by Eclipse SUMO duarouter Version 1.20.0
<configuration xmlns:xsi="http://www.w3.org/2001/XMLSchema-instance" xsi:noNamespaceSchemaLocation="http://sumo.dlr.de/xsd/duarouterConfiguration.xsd">

    <input>
        <net-file value="traffic_simulation\maps\jinan\jinan.net.xml"/>
        <route-files value="trips.trips.xml"/>
    </input>

    <output>
        <output-file value="traffic_simulation\maps\jinan\jinan_2400.rou.xml"/>
        <alternatives-output value="NUL"/>
    </output>

    <time>
        <begin value="0"/>
        <end value="1800.0"/>
    </time>

    <report>
        <no-warnings value="true"/>
        <ignore-errors value="true"/>
        <no-step-log value="true"/>
    </report>

</configuration>
-->

<routes xmlns:xsi="http://www.w3.org/2001/XMLSchema-instance" xsi:noNamespaceSchemaLocation="http://sumo.dlr.de/xsd/routes_file.xsd">
    <vType id="ambulance" vClass="passenger" guiShape="emergency" color="0,255,0" />
    <vehicle id="0" depart="0.00">
        <route edges="681861646#0 681861639 E4 -706646521#1 -706646521#0 -531665133#2"/>
    </vehicle>
    <vehicle id="1" depart="0.75">
        <route edges="136874957#1 -706646521#1 -706646521#0 -531665133#2 1217260378#2"/>
    </vehicle>
    <vehicle id="2" depart="1.50">
        <route edges="702425606#1 702425606#3 475918508#3 701103092#0"/>
    </vehicle>
    <vehicle id="3" depart="2.25">
        <route edges="992636890 E0 1050331481#0 706646520#2 136874957#1 -706646521#1"/>
    </vehicle>
    <vehicle id="4" depart="3.00">
        <route edges="553641440#0 136874957#1 616909620#1 -610347277"/>
    </vehicle>
    <vehicle id="5" depart="3.75">
        <route edges="1217260377#3 531665133#2 706646521#0 756182227#4 756182227#5 669314703#2"/>
    </vehicle>
    <vehicle id="6" depart="4.50">
        <route edges="-531665133#2 -531665133#0 475918524#0 475918524#2 1050331482"/>
    </vehicle>
    <vehicle id="7" depart="5.25">
        <route edges="681884101 681860260#1 669315811"/>
    </vehicle>
    <vehicle id="8" depart="6.00">
        <route edges="1217260377#3 -531665133#0 701103092#0 681860260#1"/>
    </vehicle>
    <vehicle id="9" depart="6.75">
        <route edges="706646522#2 -706646522#2 702425606#1 1217260377#3 -531665133#0"/>
    </vehicle>
    <vehicle id="10" depart="7.50">
        <route edges="706646522#2 1341857294 475918508#0 475918508#3 701103092#0 701103107"/>
    </vehicle>
    <vehicle id="11" depart="8.25">
        <route edges="475918524#0 475918508#3 531665133#0 531665133#2 706646521#0 756182227#4 -756182227#4"/>
    </vehicle>
    <vehicle id="12" depart="9.00">
        <route edges="E12 E4 -706646521#1 -706646521#0 -531665133#2 1217260378#2 702425606#3 475918508#3"/>
    </vehicle>
    <vehicle id="13" depart="9.75">
        <route edges="-706646522#0"/>
    </vehicle>
    <vehicle id="14" depart="10.50">
        <route edges="756182227#0 756182227#4 756182227#5 669315811 681860260#1"/>
    </vehicle>
    <vehicle id="15" depart="11.25">
        <route edges="706646522#2 -706646522#2 702425606#1"/>
    </vehicle>
    <vehicle id="16" depart="12.00">
        <route edges="669315811 681860260#1 669314703#2 681861639 E4 E5"/>
    </vehicle>
    <vehicle id="17" depart="12.75">
        <route edges="531665133#0 531665133#2 706646521#0 756182227#4 756182227#5 669315811"/>
    </vehicle>
    <vehicle id="18" depart="13.50">
        <route edges="756182226 1050331481#0 706646520#2 136874957#1 616909620#1 681861646#0"/>
    </vehicle>
    <vehicle id="19" depart="14.25">
        <route edges="756182227#4 756182227#5 669315811 681860260#1"/>
    </vehicle>
    <vehicle id="20" depart="15.00">
        <route edges="701103107 475918524#0 -702425606#3 -702425606#1"/>
    </vehicle>
    <vehicle id="21" depart="15.75">
        <route edges="1217260378#2 -702425606#1 706646522#2 1050331481#0 706646520#2 136874957#1"/>
    </vehicle>
    <vehicle id="22" depart="16.50">
        <route edges="-706646521#1 -756182227#0 756182226 1341857294"/>
    </vehicle>
    <vehicle id="23" depart="17.25">
        <route edges="-706646522#0 706646521#0 706646521#1 553641440#0 136874957#1"/>
    </vehicle>
    <vehicle id="24" depart="18.00">
        <route edges="681861646#0 669312818#1 669315811 701103107 475918524#0 475918524#2"/>
    </vehicle>
    <vehicle id="25" depart="18.75">
        <route edges="475918524#2 475918508#0 -702425606#3 1217260377#3"/>
    </vehicle>
    <vehicle id="26" depart="19.50">
        <route edges="136874957#1 616909620#1 E13"/>
    </vehicle>
    <vehicle id="27" depart="20.25">
        <route edges="681884101 681860260#1 669314703#2 681861639"/>
    </vehicle>
    <vehicle id="28" depart="21.00">
        <route edges="-756182227#4 -706646521#0 706646522#0 702425606#1"/>
    </vehicle>
    <vehicle id="29" depart="21.75">
        <route edges="-756182227#4 -706646521#0 -531665133#2 -531665133#0 531665133#0"/>
    </vehicle>
    <vehicle id="30" depart="22.50">
        <route edges="E4 616909620#1 681861646#0 669312818#1 669315811 681883563#1"/>
    </vehicle>
    <vehicle id="31" depart="23.25">
        <route edges="669315811 701103107 701103092#0"/>
    </vehicle>
    <vehicle id="32" depart="24.00">
        <route edges="756182227#0 706646521#1"/>
    </vehicle>
    <vehicle id="33" depart="24.75">
        <route edges="1217260378#2 1217260377#3 531665133#2 706646521#0 706646521#1 616909620#1 -610347277"/>
    </vehicle>
    <vehicle id="34" depart="25.50">
        <route edges="475918508#0 475918524#2 E0 1050331481#0 706646520#2 136874957#1"/>
    </vehicle>
    <vehicle id="35" depart="26.25">
        <route edges="1217260377#3 531665133#2 706646521#0 706646521#1 616909620#1 E13"/>
    </vehicle>
    <vehicle id="36" depart="27.00">
        <route edges="756182227#4 -756182227#4 -756182227#0 756182226 1341857294 475918508#0"/>
    </vehicle>
    <vehicle id="37" depart="27.75">
        <route edges="681884101 701103107 531665133#0 531665133#2"/>
    </vehicle>
    <vehicle id="38" depart="28.50">
        <route edges="E0 1050331481#0 756182227#0 756182227#4 610347277"/>
    </vehicle>
    <vehicle id="39" depart="29.25">
        <route edges="136874957#1 553641440#0 566275817#0 756182226 1341857294"/>
    </vehicle>
    <vehicle id="40" depart="30.00">
        <route edges="669315811 681860260#1 669314703#2 681861639 E4 553641440#0 136874957#1"/>
    </vehicle>
    <vehicle id="41" depart="30.75">
        <route edges="681860260#1 -756182227#5 -756182227#4 -756182227#0 756182226 1341857294 E0"/>
    </vehicle>
    <vehicle id="42" depart="31.50">
        <route edges="531665133#2 -531665133#2 1217260378#2"/>
    </vehicle>
    <vehicle id="43" depart="32.25">
        <route edges="E8 669314703#2"/>
    </vehicle>
    <vehicle id="44" depart="33.00">
        <route edges="-706646522#0 706646522#0 702425606#1 -702425606#1"/>
    </vehicle>
    <vehicle id="45" depart="33.75">
        <route edges="-706646522#2 702425606#1 702425606#3 475918508#3 701103092#0 681883563#1"/>
    </vehicle>
    <vehicle id="46" depart="34.50">
        <route edges="706646522#0 -706646522#0 706646521#0 706646521#1 553641440#0"/>
    </vehicle>
    <vehicle id="47" depart="35.25">
        <route edges="-702425606#3 702425606#3 475918508#3 531665133#0"/>
    </vehicle>
    <vehicle id="48" depart="36.00">
        <route edges="E8 669315811"/>
    </vehicle>
    <vehicle id="49" depart="36.75">
        <route edges="E4 -706646521#1 756182227#4"/>
    </vehicle>
    <vehicle id="50" depart="37.50">
        <route edges="-531665133#0 701103092#0 701103107"/>
    </vehicle>
    <vehicle id="51" depart="38.25">
        <route edges="701103092#0 681860260#1 669315811"/>
    </vehicle>
    <vehicle id="52" depart="39.00">
        <route edges="136874957#1 616909620#1 681861646#0 669312818#1 669315811 681883563#1"/>
    </vehicle>
    <vehicle id="53" depart="39.75">
        <route edges="-706646522#2 706646522#2 1050331481#0 706646520#2 566275817#0"/>
    </vehicle>
    <vehicle id="54" depart="40.50">
        <route edges="610347277 E4"/>
    </vehicle>
    <vehicle id="55" depart="41.25">
        <route edges="756182227#4 610347277 E4 553641440#0 136874957#1"/>
    </vehicle>
    <vehicle id="56" depart="42.00">
        <route edges="669312818#1 -756182227#5"/>
    </vehicle>
    <vehicle id="57" depart="42.75">
        <route edges="E0 1050331481#0 756182227#0 756182227#4"/>
    </vehicle>
    <vehicle id="58" depart="43.50">
        <route edges="200893041#0 566275817#0 756182226 1341857294 475918508#0 475918508#3 701103092#0 681883563#1"/>
    </vehicle>
    <vehicle id="59" depart="44.25">
        <route edges="681860260#1 -756182227#5 -756182227#4 -756182227#0"/>
    </vehicle>
    <vehicle id="60" depart="45.00">
        <route edges="706646520#2 136874957#1 616909620#1 681861646#0 669312818#1 669315811"/>
    </vehicle>
    <vehicle id="61" depart="45.75">
        <route edges="706646521#1 616909620#1 681861646#0 669312818#1 669315811"/>
    </vehicle>
    <vehicle id="62" depart="46.50">
        <route edges="-531665133#0 475918524#0 475918524#2 475918508#0"/>
    </vehicle>
    <vehicle id="63" depart="47.25">
        <route edges="-531665133#2 -531665133#0 E11"/>
    </vehicle>
    <vehicle id="64" depart="48.00">
        <route edges="756182227#4 -756182227#4 -756182227#0 756182227#0"/>
    </vehicle>
    <vehicle id="65" depart="48.75">
        <route edges="200893041#0 566275817#0 756182226 1341857294 475918508#0 -702425606#3"/>
    </vehicle>
    <vehicle id="66" depart="49.50">
        <route edges="756182227#4 -756182227#4 -756182227#0 756182226 E3"/>
    </vehicle>
    <vehicle id="67" depart="50.25">
        <route edges="-706646521#1 706646521#1 616909620#1 681861646#0 669312818#1"/>
    </vehicle>
    <vehicle id="68" depart="51.00">
        <route edges="-706646521#0 706646522#0 706646522#2 1050331481#0 706646520#2"/>
    </vehicle>
    <vehicle id="69" depart="51.75">
        <route edges="706646521#0 -756182227#0"/>
    </vehicle>
    <vehicle id="70" depart="52.50">
        <route edges="616909620#1 681861646#0 669312818#1 669315811"/>
    </vehicle>
    <vehicle id="71" depart="53.25">
        <route edges="136874957#1 -706646521#1 756182227#4"/>
    </vehicle>
    <vehicle id="72" depart="54.00">
        <route edges="553641440#0 566275817#0 756182226 -706646522#2 702425606#1 1217260377#3"/>
    </vehicle>
    <vehicle id="73" depart="54.75">
        <route edges="669315811 701103107 475918524#0 -702425606#3 -702425606#1 702425606#1"/>
    </vehicle>
    <vehicle id="74" depart="55.50">
        <route edges="1187978256 E0 1050331481#0 706646520#2 200893043"/>
    </vehicle>
    <vehicle id="75" depart="56.25">
        <route edges="E8 669315811 701103107 475918524#0 475918524#2 685081434"/>
    </vehicle>
    <vehicle id="76" depart="57.00">
        <route edges="566275817#0 756182227#0 756182227#4 756182227#5 669315811"/>
    </vehicle>
    <vehicle id="77" depart="57.75">
        <route edges="-706646522#2 702425606#1 1217260377#3 1217260378#2"/>
    </vehicle>
    <vehicle id="78" depart="58.50">
        <route edges="475918508#3 701103092#0 681860260#1"/>
    </vehicle>
    <vehicle id="79" depart="59.25">
        <route edges="1217260378#2"/>
    </vehicle>
    <vehicle id="80" depart="60.00">
        <route edges="-706646521#0 -531665133#2 -531665133#0 701103092#0 681883563#1"/>
    </vehicle>
    <vehicle id="81" depart="60.75">
        <route edges="1217260378#2 702425606#3 475918524#2 E0"/>
    </vehicle>
    <vehicle id="82" depart="61.50">
        <route edges="756182227#0 -706646521#0"/>
    </vehicle>
    <vehicle id="83" depart="62.25">
        <route edges="1341857294 475918508#0 475918508#3 701103092#0"/>
    </vehicle>
    <vehicle id="84" depart="63.00">
        <route edges="1217260377#3 531665133#2 706646521#0 -756182227#0"/>
    </vehicle>
    <vehicle id="85" depart="63.75">
        <route edges="E1 616909620#1 681861646#0 669312818#1 669315811 681860260#1"/>
    </vehicle>
    <vehicle id="86" depart="64.50">
        <route edges="616909620#1 E4 -706646521#1 -706646521#0 706646522#0"/>
    </vehicle>
    <vehicle id="87" depart="65.25">
        <route edges="706646522#2 1050331481#0"/>
    </vehicle>
    <vehicle id="88" depart="66.00">
        <route edges="-706646522#0 706646521#0 706646521#1 553641440#0"/>
    </vehicle>
    <vehicle id="89" depart="66.75">
        <route edges="553641440#0 136874957#1 616909620#1"/>
    </vehicle>
    <vehicle id="90" depart="67.50">
        <route edges="702425606#1 702425606#3 475918508#3 701103092#0"/>
    </vehicle>
    <vehicle id="91" depart="68.25">
        <route edges="E4 -706646521#1 -706646521#0 706646522#0 -706646522#0"/>
    </vehicle>
    <vehicle id="92" depart="69.00">
        <route edges="553641440#0 566275817#0 756182226 1341857294 475918508#0 475918508#3"/>
    </vehicle>
    <vehicle id="93" depart="69.75">
        <route edges="756182227#4 -756182227#4 -756182227#0 756182226 1341857294"/>
    </vehicle>
    <vehicle id="94" depart="70.50">
        <route edges="1050331481#0 756182227#0 756182227#4 610347277"/>
    </vehicle>
    <vehicle id="95" depart="71.25">
        <route edges="553641440#0 136874957#1"/>
    </vehicle>
    <vehicle id="96" depart="72.00">
        <route edges="1341857294 475918508#0 475918508#3 E11"/>
    </vehicle>
    <vehicle id="97" depart="72.75">
        <route edges="566275832 136874957#1 -706646521#1 756182227#4"/>
    </vehicle>
    <vehicle id="98" depart="73.50">
        <route edges="669315811 701103107 475918524#0 -702425606#3 -702425606#1"/>
    </vehicle>
    <vehicle id="99" depart="74.25">
        <route edges="E8 -756182227#5 -756182227#4 -756182227#0 756182227#0"/>
    </vehicle>
    <vehicle id="100" depart="75.00">
        <route edges="E2 1341857294 475918508#0 475918508#3 E11"/>
    </vehicle>
    <vehicle id="101" depart="75.75">
        <route edges="756182227#0 756182227#4 -756182227#4"/>
    </vehicle>
    <vehicle id="102" depart="76.50">
        <route edges="616909620#1 E4 -706646521#1 -706646521#0 -531665133#2 1217260378#2 1217260377#3"/>
    </vehicle>
    <vehicle id="103" depart="77.25">
        <route edges="553641440#0 566275817#0 756182226 1341857294 475918508#0 -702425606#3"/>
    </vehicle>
    <vehicle id="104" depart="78.00">
        <route edges="531665133#0 531665133#2 706646521#0 706646521#1 E5"/>
    </vehicle>
    <vehicle id="105" depart="78.75">
        <route edges="136874957#1 -706646521#1 -706646521#0 706646522#0"/>
    </vehicle>
    <vehicle id="106" depart="79.50">
        <route edges="610347277 E4 553641440#0"/>
    </vehicle>
    <vehicle id="107" depart="80.25">
        <route edges="E12 681861646#0 669312818#1 E9"/>
    </vehicle>
    <vehicle id="108" depart="81.00">
        <route edges="669315811 701103107"/>
    </vehicle>
    <vehicle id="109" depart="81.75">
        <route edges="-756182227#0 706646520#2 200893043"/>
    </vehicle>
    <vehicle id="110" depart="82.50">
        <route edges="E2 1341857294 475918508#0 475918508#3 701103092#0 681860260#1"/>
    </vehicle>
    <vehicle id="111" depart="83.25">
        <route edges="669315811 701103107 475918524#0 -702425606#3 702425606#3"/>
    </vehicle>
    <vehicle id="112" depart="84.00">
        <route edges="-702425606#3 702425606#3 475918508#3 701103092#0 681860260#1"/>
    </vehicle>
    <vehicle id="113" depart="84.75">
        <route edges="669312818#1 -756182227#5 -756182227#4 -756182227#0 756182227#0"/>
    </vehicle>
    <vehicle id="114" depart="85.50">
        <route edges="-756182227#4 706646521#1 616909620#1 E4"/>
    </vehicle>
    <vehicle id="115" depart="86.25">
        <route edges="-706646521#1 -756182227#0 756182226 1050331481#0"/>
    </vehicle>
    <vehicle id="116" depart="87.00">
        <route edges="681860260#1 669315811 701103107 701103092#0"/>
    </vehicle>
    <vehicle id="117" depart="87.75">
        <route edges="1341857294 E0 -706646522#2"/>
    </vehicle>
    <vehicle id="118" depart="88.50">
        <route edges="756182227#5 -756182227#5 -756182227#4 -756182227#0 756182226 1341857294"/>
    </vehicle>
    <vehicle id="119" depart="89.25">
        <route edges="681860260#1 669314703#2 681861639 681861646#0"/>
    </vehicle>
    <vehicle id="120" depart="90.00">
        <route edges="553641440#0 566275817#0 756182226 1341857294 475918508#0 475918508#3 701103092#0 681860260#1"/>
    </vehicle>
    <vehicle id="121" depart="90.75">
        <route edges="669314703#2 681861639 E13"/>
    </vehicle>
    <vehicle id="122" depart="91.50">
        <route edges="1187978256 475918508#0 475918508#3 701103092#0 701103107"/>
    </vehicle>
    <vehicle id="123" depart="92.25">
        <route edges="1341857294 475918508#0 475918508#3 531665133#0 531665133#2"/>
    </vehicle>
    <vehicle id="124" depart="93.00">
        <route edges="701103092#0 701103107 475918524#0 475918524#2 E0 1050331481#0 706646520#2 200893043"/>
    </vehicle>
    <vehicle id="125" depart="93.75">
        <route edges="475918508#0 475918524#2 E0 1050331481#0 706646520#2"/>
    </vehicle>
    <vehicle id="126" depart="94.50">
        <route edges="-706646521#0 706646521#0 756182227#4 610347277"/>
    </vehicle>
    <vehicle id="127" depart="95.25">
        <route edges="E8 E9"/>
    </vehicle>
    <vehicle id="128" depart="96.00">
        <route edges="-706646521#0 -531665133#2 1217260378#2 1217260377#3"/>
    </vehicle>
    <vehicle id="129" depart="96.75">
        <route edges="136874957#1 616909620#1 E13"/>
    </vehicle>
    <vehicle id="130" depart="97.50">
        <route edges="756182227#5"/>
    </vehicle>
    <vehicle id="131" depart="98.25">
        <route edges="475918524#2 E0 1050331481#0 756182227#0 756182227#4 -756182227#4"/>
    </vehicle>
    <vehicle id="132" depart="99.00">
        <route edges="756182227#0 756182227#4 756182227#5 669315811 701103107"/>
    </vehicle>
    <vehicle id="133" depart="99.75">
        <route edges="681860260#1 669314703#2 681861639 E4 E5"/>
    </vehicle>
    <vehicle id="134" depart="100.50">
        <route edges="681884101 701103107 531665133#0 -531665133#0"/>
    </vehicle>
    <vehicle id="135" depart="101.25">
        <route edges="706646522#2 1050331481#0 706646520#2 200893043"/>
    </vehicle>
    <vehicle id="136" depart="102.00">
        <route edges="687001224#0 681860260#1 669314703#2 681861639 E13"/>
    </vehicle>
    <vehicle id="137" depart="102.75">
        <route edges="-756182227#0 756182226 -706646522#2"/>
    </vehicle>
    <vehicle id="138" depart="103.50">
        <route edges="-706646522#2 -706646522#0 706646521#0 756182227#4 756182227#5 669315811"/>
    </vehicle>
    <vehicle id="139" depart="104.25">
        <route edges="136874957#1 616909620#1 681861646#0 669312818#1 669315811 681860260#1"/>
    </vehicle>
    <vehicle id="140" depart="105.00">
        <route edges="701103107 475918524#0 -702425606#3 1217260377#3"/>
    </vehicle>
    <vehicle id="141" depart="105.75">
        <route edges="681861646#0 681861639 E4 553641440#0 136874957#1"/>
    </vehicle>
    <vehicle id="142" depart="106.50">
        <route edges="661948887 756182226 1341857294 E0"/>
    </vehicle>
    <vehicle id="143" depart="107.25">
        <route edges="756182227#0 -706646521#0 706646522#0 -706646522#0"/>
    </vehicle>
    <vehicle id="144" depart="108.00">
        <route edges="553641440#0 136874957#1"/>
    </vehicle>
    <vehicle id="145" depart="108.75">
        <route edges="-531665133#0 531665133#0 531665133#2 706646521#0"/>
    </vehicle>
    <vehicle id="146" depart="109.50">
        <route edges="681861646#0 681861639 E4 553641440#0 136874957#1"/>
    </vehicle>
    <vehicle id="147" depart="110.25">
        <route edges="702425606#3 475918508#3 701103092#0 681860260#1 669315811"/>
    </vehicle>
    <vehicle id="148" depart="111.00">
        <route edges="553641440#0 566275817#0 756182226 -706646522#2 702425606#1 1217260377#3 -531665133#0"/>
    </vehicle>
    <vehicle id="149" depart="111.75">
        <route edges="-706646521#0 706646521#0 756182227#4 756182227#5"/>
    </vehicle>
    <vehicle id="150" depart="112.50">
        <route edges="E0 1050331481#0 756182227#0 756182227#4 756182227#5 669315811"/>
    </vehicle>
    <vehicle id="151" depart="113.25">
        <route edges="756182227#0 756182227#4 756182227#5 669315811 681860260#1"/>
    </vehicle>
    <vehicle id="152" depart="114.00">
        <route edges="-756182227#0"/>
    </vehicle>
    <vehicle id="153" depart="114.75">
        <route edges="475918508#0 475918524#2 E0"/>
    </vehicle>
    <vehicle id="154" depart="115.50">
        <route edges="706646522#0 -706646522#0 706646521#0 756182227#4"/>
    </vehicle>
    <vehicle id="155" depart="116.25">
        <route edges="E0 -706646522#2 702425606#1 1217260377#3"/>
    </vehicle>
    <vehicle id="156" depart="117.00">
        <route edges="1341857294 E0 -706646522#2 -706646522#0"/>
    </vehicle>
    <vehicle id="157" depart="117.75">
        <route edges="706646521#1 -706646521#1 756182227#4 756182227#5"/>
    </vehicle>
    <vehicle id="158" depart="118.50">
        <route edges="553641440#0 136874957#1 616909620#1 681861646#0"/>
    </vehicle>
    <vehicle id="159" depart="119.25">
        <route edges="-756182227#0 706646520#2 136874957#1 616909620#1 E13"/>
    </vehicle>
    <vehicle id="160" depart="120.00">
        <route edges="756182227#4 610347277 E4 E5"/>
    </vehicle>
    <vehicle id="161" depart="120.75">
        <route edges="706646522#2 1050331481#0 756182227#0 756182227#4 756182227#5"/>
    </vehicle>
    <vehicle id="162" depart="121.50">
        <route edges="-531665133#2 1217260378#2 702425606#3"/>
    </vehicle>
    <vehicle id="163" depart="122.25">
        <route edges="475918508#3 531665133#0 531665133#2 706646521#0 706646521#1 616909620#1 E13"/>
    </vehicle>
    <vehicle id="164" depart="123.00">
        <route edges="706646522#2 1050331481#0 756182227#0 756182227#4"/>
    </vehicle>
    <vehicle id="165" depart="123.75">
        <route edges="706646522#2 1050331481#0 706646520#2 136874957#1"/>
    </vehicle>
    <vehicle id="166" depart="124.50">
        <route edges="706646522#0 706646522#2 -706646522#2"/>
    </vehicle>
    <vehicle id="167" depart="125.25">
        <route edges="756182227#4"/>
    </vehicle>
    <vehicle id="168" depart="126.00">
        <route edges="1217260378#2 -702425606#1 706646522#2 1050331481#0 756182226"/>
    </vehicle>
    <vehicle id="169" depart="126.75">
        <route edges="610347277 E4 553641440#0 200893043"/>
    </vehicle>
    <vehicle id="170" depart="127.50">
        <route edges="706646522#0 702425606#1 1217260377#3 1217260378#2"/>
    </vehicle>
    <vehicle id="171" depart="128.25">
        <route edges="-531665133#2 1217260378#2 -702425606#1 706646522#2 1050331481#0"/>
    </vehicle>
    <vehicle id="172" depart="129.00">
        <route edges="475918508#3 531665133#0 531665133#2 706646521#0 756182227#4"/>
    </vehicle>
    <vehicle id="173" depart="129.75">
        <route edges="E2 1050331481#0 706646520#2 136874957#1"/>
    </vehicle>
    <vehicle id="174" depart="130.50">
        <route edges="681884101 701103107 531665133#0 531665133#2"/>
    </vehicle>
    <vehicle id="175" depart="131.25">
        <route edges="E4 616909620#1 681861646#0 669312818#1 669315811"/>
    </vehicle>
    <vehicle id="176" depart="132.00">
        <route edges="E10 475918524#0 475918524#2 E0 -706646522#2"/>
    </vehicle>
    <vehicle id="177" depart="132.75">
        <route edges="E2 1050331481#0 756182227#0 756182227#4 756182227#5 -756182227#5"/>
    </vehicle>
    <vehicle id="178" depart="133.50">
        <route edges="E2 1050331481#0 706646520#2 136874957#1"/>
    </vehicle>
    <vehicle id="179" depart="134.25">
        <route edges="-706646522#2 706646522#2 1050331481#0 706646520#2 566275817#0"/>
    </vehicle>
    <vehicle id="180" depart="135.00">
        <route edges="701103107 475918524#0 475918524#2 475918508#0"/>
    </vehicle>
    <vehicle id="181" depart="135.75">
        <route edges="681860260#1 669314703#2"/>
    </vehicle>
    <vehicle id="182" depart="136.50">
        <route edges="531665133#0 -531665133#0 701103092#0 681860260#1"/>
    </vehicle>
    <vehicle id="183" depart="137.25">
        <route edges="1341857294 475918508#0 475918508#3 701103092#0 701103107"/>
    </vehicle>
    <vehicle id="184" depart="138.00">
        <route edges="-531665133#0 E11"/>
    </vehicle>
    <vehicle id="185" depart="138.75">
        <route edges="669315811 701103107"/>
    </vehicle>
    <vehicle id="186" depart="139.50">
        <route edges="702425606#3 475918508#3 701103092#0"/>
    </vehicle>
    <vehicle id="187" depart="140.25">
        <route edges="475918524#2 E0 1050331481#0 756182227#0 -706646521#0"/>
    </vehicle>
    <vehicle id="188" depart="141.00">
        <route edges="687001224#0 701103107 475918524#0 475918524#2 475918508#0"/>
    </vehicle>
    <vehicle id="189" depart="141.75">
        <route edges="475918508#0 475918524#2 E0 1050331481#0 756182227#0"/>
    </vehicle>
    <vehicle id="190" depart="142.50">
        <route edges="701103107 475918524#0 475918524#2 E0 1050331481#0 706646520#2 200893043"/>
    </vehicle>
    <vehicle id="191" depart="143.25">
        <route edges="475918508#0 475918508#3 531665133#0 531665133#2 706646521#0 706646521#1 553641440#0"/>
    </vehicle>
    <vehicle id="192" depart="144.00">
        <route edges="553641440#0 200893043"/>
    </vehicle>
    <vehicle id="193" depart="144.75">
        <route edges="-756182227#0 706646520#2 136874957#1 553641440#0"/>
    </vehicle>
    <vehicle id="194" depart="145.50">
        <route edges="E10 701103092#0"/>
    </vehicle>
    <vehicle id="195" depart="146.25">
        <route edges="E0 1050331481#0 706646520#2 136874957#1 616909620#1 681861646#0 681861639"/>
    </vehicle>
    <vehicle id="196" depart="147.00">
        <route edges="200893041#0 136874957#1 616909620#1 681861646#0 669312818#1 669315811"/>
    </vehicle>
    <vehicle id="197" depart="147.75">
        <route edges="-531665133#0 475918524#0 475918524#2 E0 1050331481#0 706646520#2 136874957#1"/>
    </vehicle>
    <vehicle id="198" depart="148.50">
        <route edges="566275817#0 756182226 1341857294 475918508#0 475918508#3 701103092#0 681860260#1"/>
    </vehicle>
    <vehicle id="199" depart="149.25">
        <route edges="681884101 681860260#1 669314703#2 681861639 E4 616909620#1"/>
    </vehicle>
    <vehicle id="200" depart="150.00">
        <route edges="566275832 566275817#0 756182226 -706646522#2 702425606#1 1217260377#3"/>
    </vehicle>
    <vehicle id="201" depart="150.75">
        <route edges="616909620#1 E4 553641440#0 566275817#0 756182226 1341857294 E0"/>
    </vehicle>
    <vehicle id="202" depart="151.50">
        <route edges="706646522#0 -706646522#0 706646521#0 756182227#4 -756182227#4"/>
    </vehicle>
    <vehicle id="203" depart="152.25">
        <route edges="-706646521#1 756182227#4 756182227#5 669314703#2"/>
    </vehicle>
    <vehicle id="204" depart="153.00">
        <route edges="681861646#0 669312818#1 669315811 701103107 475918524#0 475918508#3"/>
    </vehicle>
    <vehicle id="205" depart="153.75">
        <route edges="706646522#2 1050331481#0 706646520#2"/>
    </vehicle>
    <vehicle id="206" depart="154.50">
        <route edges="701103092#0 701103107 531665133#0 1217260378#2"/>
    </vehicle>
    <vehicle id="207" depart="155.25">
        <route edges="1187978256 E0 -706646522#2 -706646522#0 -531665133#2"/>
    </vehicle>
    <vehicle id="208" depart="156.00">
        <route edges="1341857294 E0 1050331481#0 706646520#2 136874957#1 616909620#1"/>
    </vehicle>
    <vehicle id="209" depart="156.75">
        <route edges="756182227#0 -706646521#0"/>
    </vehicle>
    <vehicle id="210" depart="157.50">
        <route edges="553641440#0 566275817#0 756182226 1341857294 475918508#0 475918508#3 701103092#0 681883563#1"/>
    </vehicle>
    <vehicle id="211" depart="158.25">
        <route edges="1050331481#0 756182226 1341857294 475918508#0 475918508#3 701103092#0 701103107"/>
    </vehicle>
    <vehicle id="212" depart="159.00">
        <route edges="661948887 756182226 1341857294"/>
    </vehicle>
    <vehicle id="213" depart="159.75">
        <route edges="681884101 701103107 531665133#0 -531665133#0"/>
    </vehicle>
    <vehicle id="214" depart="160.50">
        <route edges="702425606#3 475918508#3 531665133#0 531665133#2 706646521#0"/>
    </vehicle>
    <vehicle id="215" depart="161.25">
        <route edges="-706646522#2 -706646522#0 706646521#0 706646521#1 553641440#0"/>
    </vehicle>
    <vehicle id="216" depart="162.00">
        <route edges="-756182227#5 610347277 E4"/>
    </vehicle>
    <vehicle id="217" depart="162.75">
        <route edges="669314703#2 681861639 E4 -706646521#1 -706646521#0 -531665133#2 1217260378#2 -702425606#1"/>
    </vehicle>
    <vehicle id="218" depart="163.50">
        <route edges="1341857294 E0 1050331481#0 756182227#0"/>
    </vehicle>
    <vehicle id="219" depart="164.25">
        <route edges="610347277 E4 -706646521#1 -706646521#0 706646522#0 706646522#2"/>
    </vehicle>
    <vehicle id="220" depart="165.00">
        <route edges="701103092#0 681860260#1 669314703#2 681861639 E4 E5"/>
    </vehicle>
    <vehicle id="221" depart="165.75">
        <route edges="681860260#1 -756182227#5 -756182227#4 -756182227#0 756182226 E3"/>
    </vehicle>
    <vehicle id="222" depart="166.50">